sad/pglib_opf_case2853_sdet__sad.m
%%%%%%%%%%%%%%%%%%%%%%%%%%%%%%%%%%%%%%%%%%%%%%%%%%%%%%%%%%%%%%%%%%%%%%%%%%%
%%%%                                                                  %%%%%
%%%%    IEEE PES Power Grid Library - Optimal Power Flow - v18.08     %%%%%
%%%%          (https://github.com/power-grid-lib/pglib-opf)           %%%%%
%%%%             Benchmark Group - Small Angle Difference             %%%%%
%%%%                        08 - August - 2018                        %%%%%
%%%%                                                                  %%%%%
%%%%%%%%%%%%%%%%%%%%%%%%%%%%%%%%%%%%%%%%%%%%%%%%%%%%%%%%%%%%%%%%%%%%%%%%%%%
function mpc = pglib_opf_case2853_sdet__sad
mpc.version = '2';
mpc.baseMVA = 100.0;

%% bus data
%	bus_i	type	Pd	Qd	Gs	Bs	area	Vm	Va	baseKV	zone	Vmax	Vmin
mpc.bus = [
	1	 1	 0.1	 -1.05	 0.0	 4.11	 1	    1.00000	    0.00000	 138.0	 1	    1.10000	    0.90000;
	2	 2	 0.0	 0.0	 0.0	 0.0	 1	    1.00000	    0.00000	 20.0	 1	    1.10000	    0.90000;
	3	 1	 -7.61	 2.37	 0.0	 0.0	 1	    1.00000	    0.00000	 138.0	 1	    1.10000	    0.90000;
	4	 1	 0.1	 -0.34	 0.0	 0.0	 1	    1.00000	    0.00000	 138.0	 1	    1.10000	    0.90000;
	5	 1	 0.1	 -0.19	 0.0	 0.0	 1	    1.00000	    0.00000	 138.0	 1	    1.10000	    0.90000;
	6	 2	 0.0	 0.0	 0.0	 0.0	 1	    1.00000	    0.00000	 20.0	 1	    1.10000	    0.90000;
	7	 1	 -19.32	 6.4	 0.0	 0.0	 1	    1.00000	    0.00000	 138.0	 1	    1.10000	    0.90000;
	8	 1	 -41.65	 13.4	 0.0	 0.0	 1	    1.00000	    0.00000	 138.0	 1	    1.10000	    0.90000;
	9	 1	 0.1	 -0.24	 0.0	 0.0	 1	    1.00000	    0.00000	 138.0	 1	    1.10000	    0.90000;
	10	 2	 -6.7	 -8.98	 0.0	 0.0	 1	    1.00000	    0.00000	 138.0	 1	    1.10000	    0.90000;
	11	 1	 96.28	 -2.53	 0.0	 0.0	 1	    1.00000	    0.00000	 138.0	 1	    1.10000	    0.90000;
	12	 2	 -10.41	 -7.41	 0.0	 38.43	 1	    1.00000	    0.00000	 138.0	 1	    1.10000	    0.90000;
	13	 1	 0.1	 0.08	 0.0	 0.0	 1	    1.00000	    0.00000	 138.0	 1	    1.10000	    0.90000;
	14	 1	 0.1	 -2.08	 0.0	 0.0	 1	    1.00000	    0.00000	 138.0	 1	    1.10000	    0.90000;
	15	 2	 0.0	 0.0	 0.0	 0.0	 1	    1.00000	    0.00000	 20.0	 1	    1.10000	    0.90000;
	16	 2	 0.0	 0.0	 0.0	 0.0	 1	    1.00000	    0.00000	 20.0	 1	    1.10000	    0.90000;
	17	 2	 0.1	 -1.53	 0.0	 28.75	 1	    1.00000	    0.00000	 138.0	 1	    1.10000	    0.90000;
	18	 1	 119.1	 59.5	 0.0	 21.06	 1	    1.00000	    0.00000	 138.0	 1	    1.10000	    0.90000;
	19	 1	 32.84	 13.07	 0.0	 5.26	 1	    1.00000	    0.00000	 138.0	 1	    1.10000	    0.90000;
	20	 1	 -0.54	 -5.8	 0.0	 0.0	 1	    1.00000	    0.00000	 138.0	 1	    1.10000	    0.90000;
	21	 1	 -10.71	 2.92	 0.0	 0.0	 1	    1.00000	    0.00000	 138.0	 1	    1.10000	    0.90000;
	22	 1	 0.1	 -4.36	 0.0	 0.0	 1	    1.00000	    0.00000	 138.0	 1	    1.10000	    0.90000;
	23	 1	 0.1	 -2.42	 0.0	 0.0	 1	    1.00000	    0.00000	 138.0	 1	    1.10000	    0.90000;
	24	 2	 0.0	 0.0	 0.0	 0.0	 1	    1.00000	    0.00000	 20.0	 1	    1.10000	    0.90000;
	25	 1	 0.1	 -1.09	 0.0	 1.74	 1	    1.00000	    0.00000	 138.0	 1	    1.10000	    0.90000;
	26	 2	 0.0	 0.0	 0.0	 0.0	 1	    1.00000	    0.00000	 20.0	 1	    1.10000	    0.90000;
	27	 2	 0.0	 0.0	 0.0	 0.0	 1	    1.00000	    0.00000	 20.0	 1	    1.10000	    0.90000;
	28	 1	 0.1	 -0.38	 0.0	 0.0	 1	    1.00000	    0.00000	 138.0	 1	    1.10000	    0.90000;
	29	 1	 160.2	 89.9	 0.0	 0.0	 1	    1.00000	    0.00000	 138.0	 1	    1.10000	    0.90000;
	30	 2	 160.2	 88.7	 0.0	 -5.21	 1	    1.00000	    0.00000	 138.0	 1	    1.10000	    0.90000;
	31	 1	 18.45	 9.5	 0.0	 0.0	 1	    1.00000	    0.00000	 138.0	 1	    1.10000	    0.90000;
	32	 1	 -15.12	 4.75	 0.0	 0.0	 1	    1.00000	    0.00000	 138.0	 1	    1.10000	    0.90000;
	33	 1	 0.1	 -1.32	 0.0	 1.08	 1	    1.00000	    0.00000	 138.0	 1	    1.10000	    0.90000;
	34	 2	 0.0	 0.0	 0.0	 0.0	 1	    1.00000	    0.00000	 20.0	 1	    1.10000	    0.90000;
	35	 1	 0.1	 -3.06	 0.0	 0.0	 1	    1.00000	    0.00000	 138.0	 1	    1.10000	    0.90000;
	36	 1	 0.1	 -1.77	 0.0	 0.0	 1	    1.00000	    0.00000	 138.0	 1	    1.10000	    0.90000;
	37	 1	 0.1	 -0.36	 0.0	 0.0	 1	    1.00000	    0.00000	 138.0	 1	    1.10000	    0.90000;
	38	 1	 0.0	 0.0	 0.0	 0.0	 1	    1.00000	    0.00000	 138.0	 1	    1.10000	    0.90000;
	39	 1	 0.1	 -0.35	 0.0	 0.0	 1	    1.00000	    0.00000	 138.0	 1	    1.10000	    0.90000;
	40	 1	 0.12	 0.12	 0.0	 0.0	 1	    1.00000	    0.00000	 138.0	 1	    1.10000	    0.90000;
	41	 1	 0.1	 -1.35	 0.0	 0.0	 1	    1.00000	    0.00000	 138.0	 1	    1.10000	    0.90000;
	42	 1	 -20.12	 5.75	 0.0	 0.0	 1	    1.00000	    0.00000	 138.0	 1	    1.10000	    0.90000;
	43	 1	 0.1	 -3.79	 0.0	 0.58	 1	    1.00000	    0.00000	 138.0	 1	    1.10000	    0.90000;
	44	 2	 0.0	 0.0	 0.0	 0.0	 1	    1.00000	    0.00000	 20.0	 1	    1.10000	    0.90000;
	45	 2	 0.0	 0.0	 0.0	 0.0	 1	    1.00000	    0.00000	 20.0	 1	    1.10000	    0.90000;
	46	 1	 0.0	 0.0	 0.0	 0.0	 1	    1.00000	    0.00000	 138.0	 1	    1.10000	    0.90000;
	47	 1	 0.0	 0.0	 0.0	 0.0	 2	    1.00000	    0.00000	 138.0	 2	    1.10000	    0.90000;
	48	 1	 27.05	 -16.5	 0.0	 0.0	 2	    1.00000	    0.00000	 500.0	 2	    1.10000	    0.90000;
	49	 1	 7.71	 13.11	 0.0	 4.18	 2	    1.00000	    0.00000	 138.0	 2	    1.10000	    0.90000;
	50	 1	 0.0	 0.0	 0.0	 0.02	 2	    1.00000	    0.00000	 138.0	 2	    1.10000	    0.90000;
	51	 1	 0.1	 -0.4	 0.0	 0.0	 2	    1.00000	    0.00000	 138.0	 2	    1.10000	    0.90000;
	52	 1	 0.0	 0.0	 0.0	 0.0	 2	    1.00000	    0.00000	 138.0	 2	    1.10000	    0.90000;
	53	 1	 14.8	 -77.73	 0.0	 44.53	 2	    1.00000	    0.00000	 500.0	 2	    1.10000	    0.90000;
	54	 1	 -15.8	 -10.4	 0.0	 0.0	 2	    1.00000	    0.00000	 138.0	 2	    1.10000	    0.90000;
	55	 1	 -15.92	 4.9	 0.0	 0.0	 2	    1.00000	    0.00000	 138.0	 2	    1.10000	    0.90000;
	56	 1	 69.38	 39.78	 0.0	 19.14	 2	    1.00000	    0.00000	 138.0	 2	    1.10000	    0.90000;
	57	 1	 27.05	 7.96	 0.0	 0.0	 2	    1.00000	    0.00000	 138.0	 2	    1.10000	    0.90000;
	58	 1	 0.0	 0.0	 0.0	 0.0	 2	    1.00000	    0.00000	 138.0	 2	    1.10000	    0.90000;
	59	 1	 24.13	 11.14	 0.0	 0.0	 2	    1.00000	    0.00000	 138.0	 2	    1.10000	    0.90000;
	60	 1	 0.1	 -0.5	 0.0	 0.0	 2	    1.00000	    0.00000	 138.0	 2	    1.10000	    0.90000;
	61	 1	 0.1	 -1.78	 0.0	 6.93	 2	    1.00000	    0.00000	 138.0	 2	    1.10000	    0.90000;
	62	 1	 0.0	 0.0	 0.0	 0.0	 2	    1.00000	    0.00000	 138.0	 2	    1.10000	    0.90000;
	63	 1	 0.1	 -0.74	 0.0	 0.0	 2	    1.00000	    0.00000	 138.0	 2	    1.10000	    0.90000;
	64	 2	 413.0	 -361.88	 0.0	 0.0	 2	    1.00000	    0.00000	 500.0	 2	    1.10000	    0.90000;
	65	 2	 0.0	 0.0	 0.0	 0.0	 2	    1.00000	    0.00000	 20.0	 2	    1.10000	    0.90000;
	66	 1	 0.1	 -0.01	 0.0	 0.0	 2	    1.00000	    0.00000	 138.0	 2	    1.10000	    0.90000;
	67	 1	 5.77	 0.96	 0.0	 0.0	 2	    1.00000	    0.00000	 138.0	 2	    1.10000	    0.90000;
	68	 1	 0.1	 -4.87	 0.0	 0.0	 2	    1.00000	    0.00000	 138.0	 2	    1.10000	    0.90000;
	69	 1	 0.1	 -0.74	 0.0	 -19.16	 2	    1.00000	    0.00000	 138.0	 2	    1.10000	    0.90000;
	70	 1	 0.0	 0.0	 0.0	 0.02	 2	    1.00000	    0.00000	 138.0	 2	    1.10000	    0.90000;
	71	 1	 0.1	 -5.45	 0.0	 0.0	 2	    1.00000	    0.00000	 138.0	 2	    1.10000	    0.90000;
	72	 1	 2.2	 -3.95	 0.0	 0.0	 2	    1.00000	    0.00000	 138.0	 2	    1.10000	    0.90000;
	73	 1	 18.52	 7.09	 0.0	 8.15	 2	    1.00000	    0.00000	 138.0	 2	    1.10000	    0.90000;
	74	 1	 0.0	 0.0	 0.0	 0.0	 2	    1.00000	    0.00000	 138.0	 2	    1.10000	    0.90000;
	75	 1	 29.03	 17.98	 0.0	 3.66	 2	    1.00000	    0.00000	 138.0	 2	    1.10000	    0.90000;
	76	 1	 0.1	 -1.43	 0.0	 0.0	 2	    1.00000	    0.00000	 138.0	 2	    1.10000	    0.90000;
	77	 1	 0.1	 -0.87	 0.0	 2.04	 2	    1.00000	    0.00000	 138.0	 2	    1.10000	    0.90000;
	78	 1	 8.71	 4.56	 0.0	 4.24	 2	    1.00000	    0.00000	 138.0	 2	    1.10000	    0.90000;
	79	 1	 -0.57	 -3.27	 0.0	 0.0	 2	    1.00000	    0.00000	 138.0	 2	    1.10000	    0.90000;
	80	 1	 0.1	 -0.23	 0.0	 0.0	 2	    1.00000	    0.00000	 138.0	 2	    1.10000	    0.90000;
	81	 1	 35.94	 20.67	 0.0	 9.96	 2	    1.00000	    0.00000	 138.0	 2	    1.10000	    0.90000;
	82	 2	 0.0	 0.0	 0.0	 0.0	 2	    1.00000	    0.00000	 20.0	 2	    1.10000	    0.90000;
	83	 1	 0.1	 -2.37	 0.0	 0.0	 2	    1.00000	    0.00000	 138.0	 2	    1.10000	    0.90000;
	84	 1	 0.0	 0.0	 0.0	 0.0	 2	    1.00000	    0.00000	 138.0	 2	    1.10000	    0.90000;
	85	 1	 0.1	 -0.73	 0.0	 0.0	 2	    1.00000	    0.00000	 138.0	 2	    1.10000	    0.90000;
	86	 1	 54.98	 -9.33	 0.0	 10.65	 2	    1.00000	    0.00000	 138.0	 2	    1.10000	    0.90000;
	87	 1	 0.1	 -0.15	 0.0	 0.0	 2	    1.00000	    0.00000	 138.0	 2	    1.10000	    0.90000;
	88	 1	 0.1	 -1.55	 0.0	 0.0	 2	    1.00000	    0.00000	 138.0	 2	    1.10000	    0.90000;
	89	 2	 0.0	 0.0	 0.0	 -8.48	 2	    1.00000	    0.00000	 500.0	 2	    1.10000	    0.90000;
	90	 1	 13.72	 8.44	 0.0	 0.0	 2	    1.00000	    0.00000	 138.0	 2	    1.10000	    0.90000;
	91	 1	 39.53	 -28.65	 0.0	 0.0	 2	    1.00000	    0.00000	 138.0	 2	    1.10000	    0.90000;
	92	 1	 -0.57	 -1.0	 0.0	 0.0	 2	    1.00000	    0.00000	 138.0	 2	    1.10000	    0.90000;
	93	 1	 -0.57	 -4.29	 0.0	 0.0	 2	    1.00000	    0.00000	 138.0	 2	    1.10000	    0.90000;
	94	 1	 0.1	 -1.77	 0.0	 0.0	 2	    1.00000	    0.00000	 138.0	 2	    1.10000	    0.90000;
	95	 1	 11.5	 4.37	 0.0	 0.0	 2	    1.00000	    0.00000	 138.0	 2	    1.10000	    0.90000;
	96	 2	 0.0	 0.0	 0.0	 0.0	 2	    1.00000	    0.00000	 20.0	 2	    1.10000	    0.90000;
	97	 1	 -6.11	 1.53	 0.0	 0.0	 3	    1.00000	    0.00000	 138.0	 3	    1.10000	    0.90000;
	98	 1	 0.1	 -19.54	 0.0	 0.0	 3	    1.00000	    0.00000	 138.0	 3	    1.10000	    0.90000;
	99	 1	 0.1	 -26.52	 0.0	 0.0	 3	    1.00000	    0.00000	 138.0	 3	    1.10000	    0.90000;
	100	 1	 0.1	 -29.89	 0.0	 0.0	 3	    1.00000	    0.00000	 138.0	 3	    1.10000	    0.90000;
	101	 1	 0.1	 -22.93	 0.0	 0.0	 3	    1.00000	    0.00000	 138.0	 3	    1.10000	    0.90000;
	102	 1	 -8.41	 1.87	 0.0	 0.0	 3	    1.00000	    0.00000	 138.0	 3	    1.10000	    0.90000;
	103	 1	 0.1	 -15.6	 0.0	 0.0	 3	    1.00000	    0.00000	 138.0	 3	    1.10000	    0.90000;
	104	 1	 -19.62	 26.91	 0.0	 0.0	 3	    1.00000	    0.00000	 138.0	 3	    1.10000	    0.90000;
	105	 2	 -41.25	 13.02	 0.0	 16.09	 3	    1.00000	    0.00000	 138.0	 3	    1.10000	    0.90000;
	106	 1	 0.1	 -29.89	 0.0	 0.0	 3	    1.00000	    0.00000	 138.0	 3	    1.10000	    0.90000;
	107	 1	 33.36	 20.0	 0.0	 0.0	 3	    1.00000	    0.00000	 138.0	 3	    1.10000	    0.90000;
	108	 2	 0.0	 0.0	 0.0	 0.0	 3	    1.00000	    0.00000	 138.0	 3	    1.10000	    0.90000;
	109	 1	 0.1	 7.83	 0.0	 0.0	 3	    1.00000	    0.00000	 138.0	 3	    1.10000	    0.90000;
	110	 1	 0.1	 -1.89	 0.0	 0.0	 3	    1.00000	    0.00000	 138.0	 3	    1.10000	    0.90000;
	111	 1	 13.77	 18.27	 0.0	 0.0	 3	    1.00000	    0.00000	 138.0	 3	    1.10000	    0.90000;
	112	 1	 34.14	 21.1	 0.0	 0.0	 3	    1.00000	    0.00000	 138.0	 3	    1.10000	    0.90000;
	113	 1	 0.1	 -10.07	 0.0	 0.0	 3	    1.00000	    0.00000	 138.0	 3	    1.10000	    0.90000;
	114	 1	 0.0	 0.0	 0.0	 0.0	 3	    1.00000	    0.00000	 138.0	 3	    1.10000	    0.90000;
	115	 1	 -13.32	 19.44	 0.0	 0.0	 3	    1.00000	    0.00000	 138.0	 3	    1.10000	    0.90000;
	116	 1	 0.1	 0.0	 0.0	 0.0	 3	    1.00000	    0.00000	 138.0	 3	    1.10000	    0.90000;
	117	 2	 0.0	 0.0	 0.0	 0.0	 3	    1.00000	    0.00000	 138.0	 3	    1.10000	    0.90000;
	118	 1	 0.1	 -19.08	 0.0	 0.0	 3	    1.00000	    0.00000	 138.0	 3	    1.10000	    0.90000;
	119	 1	 0.0	 0.0	 0.0	 0.0	 3	    1.00000	    0.00000	 138.0	 3	    1.10000	    0.90000;
	120	 1	 37.6	 21.67	 0.0	 0.0	 3	    1.00000	    0.00000	 138.0	 3	    1.10000	    0.90000;
	121	 1	 27.86	 14.21	 0.0	 0.0	 3	    1.00000	    0.00000	 138.0	 3	    1.10000	    0.90000;
	122	 1	 13.72	 -10.96	 0.0	 0.0	 3	    1.00000	    0.00000	 138.0	 3	    1.10000	    0.90000;
	123	 1	 0.1	 -1.89	 0.0	 0.0	 3	    1.00000	    0.00000	 138.0	 3	    1.10000	    0.90000;
	124	 1	 0.1	 -4.32	 0.0	 0.0	 3	    1.00000	    0.00000	 138.0	 3	    1.10000	    0.90000;
	125	 1	 -0.67	 -3.25	 0.0	 0.0	 3	    1.00000	    0.00000	 138.0	 3	    1.10000	    0.90000;
	126	 2	 0.1	 -19.08	 0.0	 0.0	 3	    1.00000	    0.00000	 138.0	 3	    1.10000	    0.90000;
	127	 1	 0.0	 0.0	 0.0	 0.0	 4	    1.00000	    0.00000	 20.0	 4	    1.10000	    0.90000;
	128	 2	 210.5	 27.62	 0.0	 -49.77	 4	    1.00000	    0.00000	 500.0	 4	    1.10000	    0.90000;
	129	 2	 0.0	 0.0	 0.0	 0.0	 4	    1.00000	    0.00000	 20.0	 4	    1.10000	    0.90000;
	130	 2	 0.0	 0.0	 0.0	 0.0	 4	    1.00000	    0.00000	 20.0	 4	    1.10000	    0.90000;
	131	 2	 0.0	 0.0	 0.0	 0.0	 4	    1.00000	    0.00000	 20.0	 4	    1.10000	    0.90000;
	132	 2	 0.0	 0.0	 0.0	 0.0	 4	    1.00000	    0.00000	 20.0	 4	    1.10000	    0.90000;
	133	 2	 0.0	 0.0	 0.0	 0.0	 4	    1.00000	    0.00000	 20.0	 4	    1.10000	    0.90000;
	134	 2	 0.0	 0.0	 0.0	 0.0	 4	    1.00000	    0.00000	 20.0	 4	    1.10000	    0.90000;
	135	 1	 229.05	 127.87	 0.0	 0.0	 4	    1.00000	    0.00000	 500.0	 4	    1.10000	    0.90000;
	136	 2	 0.0	 0.0	 0.0	 0.0	 4	    1.00000	    0.00000	 20.0	 4	    1.10000	    0.90000;
	137	 1	 17.32	 -9.92	 0.0	 0.0	 4	    1.00000	    0.00000	 500.0	 4	    1.10000	    0.90000;
	138	 1	 1.38	 40.91	 0.0	 0.0	 4	    1.00000	    0.00000	 500.0	 4	    1.10000	    0.90000;
	139	 1	 36.54	 1.82	 0.0	 0.0	 4	    1.00000	    0.00000	 345.0	 4	    1.10000	    0.90000;
	140	 1	 287.7	 3.44	 0.0	 0.0	 4	    1.00000	    0.00000	 500.0	 4	    1.10000	    0.90000;
	141	 1	 90.7	 1.7	 0.0	 0.0	 4	    1.00000	    0.00000	 345.0	 4	    1.10000	    0.90000;
	142	 2	 0.0	 0.0	 0.0	 0.0	 4	    1.00000	    0.00000	 500.0	 4	    1.10000	    0.90000;
	143	 2	 303.04	 131.03	 0.0	 0.0	 4	    1.00000	    0.00000	 500.0	 4	    1.10000	    0.90000;
	144	 1	 300.2	 -33.04	 0.0	 0.0	 4	    1.00000	    0.00000	 500.0	 4	    1.10000	    0.90000;
	145	 1	 207.95	 -48.04	 0.0	 0.0	 4	    1.00000	    0.00000	 500.0	 4	    1.10000	    0.90000;
	146	 2	 34.44	 -34.16	 0.0	 16.08	 4	    1.00000	    0.00000	 500.0	 4	    1.10000	    0.90000;
	147	 1	 25.54	 -11.15	 0.0	 0.0	 4	    1.00000	    0.00000	 345.0	 4	    1.10000	    0.90000;
	148	 1	 0.0	 0.0	 0.0	 0.0	 4	    1.00000	    0.00000	 20.0	 4	    1.10000	    0.90000;
	149	 1	 30.93	 0.69	 0.0	 5.66	 4	    1.00000	    0.00000	 345.0	 4	    1.10000	    0.90000;
	150	 2	 14.32	 -83.22	 0.0	 -23.72	 4	    1.00000	    0.00000	 500.0	 4	    1.10000	    0.90000;
	151	 2	 189.4	 22.18	 0.0	 0.0	 4	    1.00000	    0.00000	 345.0	 4	    1.10000	    0.90000;
	152	 1	 1.72	 56.78	 0.0	 0.0	 4	    1.00000	    0.00000	 500.0	 4	    1.10000	    0.90000;
	153	 2	 0.0	 0.0	 0.0	 0.0	 4	    1.00000	    0.00000	 20.0	 4	    1.10000	    0.90000;
	154	 1	 104.6	 39.28	 0.0	 0.0	 4	    1.00000	    0.00000	 345.0	 4	    1.10000	    0.90000;
	155	 1	 493.4	 -4.59	 0.0	 0.0	 4	    1.00000	    0.00000	 500.0	 4	    1.10000	    0.90000;
	156	 1	 69.78	 13.96	 0.0	 0.0	 4	    1.00000	    0.00000	 345.0	 4	    1.10000	    0.90000;
	157	 2	 0.0	 0.0	 0.0	 0.0	 4	    1.00000	    0.00000	 20.0	 4	    1.10000	    0.90000;
	158	 1	 633.63	 11.09	 0.0	 0.0	 4	    1.00000	    0.00000	 345.0	 4	    1.10000	    0.90000;
	159	 1	 0.0	 0.0	 0.0	 0.0	 4	    1.00000	    0.00000	 20.0	 4	    1.10000	    0.90000;
	160	 1	 694.34	 45.83	 0.0	 0.0	 4	    1.00000	    0.00000	 345.0	 4	    1.10000	    0.90000;
	161	 1	 0.0	 0.0	 0.0	 0.0	 4	    1.00000	    0.00000	 20.0	 4	    1.10000	    0.90000;
	162	 1	 0.0	 0.0	 0.0	 0.0	 4	    1.00000	    0.00000	 20.0	 4	    1.10000	    0.90000;
	163	 2	 0.0	 0.0	 0.0	 0.0	 4	    1.00000	    0.00000	 20.0	 4	    1.10000	    0.90000;
	164	 1	 0.0	 0.0	 0.0	 0.0	 4	    1.00000	    0.00000	 20.0	 4	    1.10000	    0.90000;
	165	 2	 0.0	 0.0	 0.0	 0.0	 4	    1.00000	    0.00000	 20.0	 4	    1.10000	    0.90000;
	166	 2	 0.0	 0.0	 0.0	 0.0	 4	    1.00000	    0.00000	 20.0	 4	    1.10000	    0.90000;
	167	 2	 0.0	 0.0	 0.0	 0.0	 4	    1.00000	    0.00000	 20.0	 4	    1.10000	    0.90000;
	168	 2	 0.0	 0.0	 0.0	 0.0	 4	    1.00000	    0.00000	 20.0	 4	    1.10000	    0.90000;
	169	 2	 0.0	 0.0	 0.0	 0.0	 4	    1.00000	    0.00000	 20.0	 4	    1.10000	    0.90000;
	170	 1	 -24.49	 95.16	 0.0	 11.38	 4	    1.00000	    0.00000	 500.0	 4	    1.10000	    0.90000;
	171	 1	 179.74	 -1.65	 0.0	 0.0	 4	    1.00000	    0.00000	 345.0	 4	    1.10000	    0.90000;
	172	 1	 80.59	 -11.62	 0.0	 0.0	 4	    1.00000	    0.00000	 345.0	 4	    1.10000	    0.90000;
	173	 1	 366.6	 -3.38	 0.0	 0.0	 4	    1.00000	    0.00000	 500.0	 4	    1.10000	    0.90000;
	174	 1	 72.28	 5.18	 0.0	 0.0	 4	    1.00000	    0.00000	 345.0	 4	    1.10000	    0.90000;
	175	 1	 31.59	 -20.02	 0.0	 0.0	 4	    1.00000	    0.00000	 500.0	 4	    1.10000	    0.90000;
	176	 2	 0.0	 0.0	 0.0	 0.0	 4	    1.00000	    0.00000	 20.0	 4	    1.10000	    0.90000;
	177	 1	 449.54	 10.66	 0.0	 0.0	 4	    1.00000	    0.00000	 345.0	 4	    1.10000	    0.90000;
	178	 1	 19.12	 -14.57	 0.0	 0.0	 4	    1.00000	    0.00000	 500.0	 4	    1.10000	    0.90000;
	179	 2	 0.0	 0.0	 0.0	 0.0	 4	    1.00000	    0.00000	 20.0	 4	    1.10000	    0.90000;
	180	 2	 0.0	 0.0	 0.0	 0.0	 4	    1.00000	    0.00000	 20.0	 4	    1.10000	    0.90000;
	181	 1	 24.33	 -74.57	 0.0	 0.0	 4	    1.00000	    0.00000	 500.0	 4	    1.10000	    0.90000;
	182	 2	 0.0	 0.0	 0.0	 0.0	 4	    1.00000	    0.00000	 20.0	 4	    1.10000	    0.90000;
	183	 1	 0.0	 0.0	 0.0	 0.0	 4	    1.00000	    0.00000	 20.0	 4	    1.10000	    0.90000;
	184	 1	 0.0	 0.0	 0.0	 0.0	 4	    1.00000	    0.00000	 20.0	 4	    1.10000	    0.90000;
	185	 2	 0.0	 0.0	 0.0	 0.0	 4	    1.00000	    0.00000	 20.0	 4	    1.10000	    0.90000;
	186	 1	 67.47	 4.64	 0.0	 0.0	 4	    1.00000	    0.00000	 345.0	 4	    1.10000	    0.90000;
	187	 2	 0.0	 0.0	 0.0	 0.0	 4	    1.00000	    0.00000	 20.0	 4	    1.10000	    0.90000;
	188	 2	 0.0	 0.0	 0.0	 0.0	 4	    1.00000	    0.00000	 20.0	 4	    1.10000	    0.90000;
	189	 2	 0.0	 0.0	 0.0	 0.0	 4	    1.00000	    0.00000	 20.0	 4	    1.10000	    0.90000;
	190	 1	 0.0	 0.0	 0.0	 0.0	 4	    1.00000	    0.00000	 20.0	 4	    1.10000	    0.90000;
	191	 1	 0.0	 0.0	 0.0	 0.0	 4	    1.00000	    0.00000	 20.0	 4	    1.10000	    0.90000;
	192	 1	 0.0	 0.0	 0.0	 0.0	 4	    1.00000	    0.00000	 20.0	 4	    1.10000	    0.90000;
	193	 1	 142.0	 10.03	 0.0	 0.0	 4	    1.00000	    0.00000	 345.0	 4	    1.10000	    0.90000;
	194	 2	 0.0	 0.0	 0.0	 0.0	 4	    1.00000	    0.00000	 500.0	 4	    1.10000	    0.90000;
	195	 1	 186.8	 12.96	 0.0	 0.0	 4	    1.00000	    0.00000	 345.0	 4	    1.10000	    0.90000;
	196	 1	 0.0	 0.0	 0.0	 0.0	 4	    1.00000	    0.00000	 20.0	 4	    1.10000	    0.90000;
	197	 1	 0.0	 0.0	 0.0	 0.0	 4	    1.00000	    0.00000	 20.0	 4	    1.10000	    0.90000;
	198	 1	 0.0	 0.0	 0.0	 0.0	 4	    1.00000	    0.00000	 20.0	 4	    1.10000	    0.90000;
	199	 1	 0.0	 0.0	 0.0	 0.0	 4	    1.00000	    0.00000	 20.0	 4	    1.10000	    0.90000;
	200	 1	 0.0	 0.0	 0.0	 0.0	 4	    1.00000	    0.00000	 20.0	 4	    1.10000	    0.90000;
...
];

%% generator data
%	bus	Pg	Qg	Qmax	Qmin	Vg	mBase	status	Pmax	Pmin	Pc1	Pc2	Qc1min	Qc1max	Qc2min	Qc2max	ramp_agc	ramp_10	ramp_30	ramp_q	apf
mpc.gen = [
	2	 60.3	 0.0	 35.83	 -35.83	 0.9987	 100.0	 1	 100.0	 20.6	 0.0	 0.0	 0.0	 0.0	 0.0	 0.0	 0.0	 0.0	 0.0	 0.0	 100.0;
	6	 61.435	 0.0	 35.79	 -35.79	 0.9987	 100.0	 1	 100.0	 22.87	 0.0	 0.0	 0.0	 0.0	 0.0	 0.0	 0.0	 0.0	 0.0	 0.0	 100.0;
	10	 95.83	 0.0	 500.0	 -500.0	 0.9816	 100.0	 1	 115.09	 76.57	 0.0	 0.0	 0.0	 0.0	 0.0	 0.0	 0.0	 0.0	 0.0	 0.0	 115.087;
	12	 24.705	 0.0	 33.33	 -33.33	 0.986	 100.0	 0	 32.21	 17.2	 0.0	 0.0	 0.0	 0.0	 0.0	 0.0	 0.0	 0.0	 0.0	 0.0	 32.205;
	15	 60.3	 0.0	 35.83	 -35.83	 0.9987	 100.0	 1	 100.0	 20.6	 0.0	 0.0	 0.0	 0.0	 0.0	 0.0	 0.0	 0.0	 0.0	 0.0	 100.0;
	16	 61.435	 0.0	 35.79	 -35.79	 0.9987	 100.0	 1	 100.0	 22.87	 0.0	 0.0	 0.0	 0.0	 0.0	 0.0	 0.0	 0.0	 0.0	 0.0	 100.0;
	17	 38.99	 0.0	 33.33	 -33.33	 0.9812	 100.0	 0	 46.49	 31.49	 0.0	 0.0	 0.0	 0.0	 0.0	 0.0	 0.0	 0.0	 0.0	 0.0	 46.487;
	24	 61.435	 0.0	 35.79	 -35.79	 0.9987	 100.0	 1	 100.0	 22.87	 0.0	 0.0	 0.0	 0.0	 0.0	 0.0	 0.0	 0.0	 0.0	 0.0	 100.0;
	26	 60.3	 0.0	 35.83	 -35.83	 0.9987	 100.0	 1	 100.0	 20.6	 0.0	 0.0	 0.0	 0.0	 0.0	 0.0	 0.0	 0.0	 0.0	 0.0	 100.0;
	27	 61.435	 0.0	 35.79	 -35.79	 0.9987	 100.0	 1	 100.0	 22.87	 0.0	 0.0	 0.0	 0.0	 0.0	 0.0	 0.0	 0.0	 0.0	 0.0	 100.0;
	30	 23.715	 0.0	 33.33	 -33.33	 0.9794	 100.0	 0	 31.22	 16.21	 0.0	 0.0	 0.0	 0.0	 0.0	 0.0	 0.0	 0.0	 0.0	 0.0	 31.215;
	34	 61.435	 0.0	 35.79	 -35.79	 0.9987	 100.0	 1	 100.0	 22.87	 0.0	 0.0	 0.0	 0.0	 0.0	 0.0	 0.0	 0.0	 0.0	 0.0	 100.0;
	44	 61.435	 0.0	 35.79	 -35.79	 0.9987	 100.0	 1	 100.0	 22.87	 0.0	 0.0	 0.0	 0.0	 0.0	 0.0	 0.0	 0.0	 0.0	 0.0	 100.0;
	45	 60.3	 0.0	 35.83	 -35.83	 0.9987	 100.0	 1	 100.0	 20.6	 0.0	 0.0	 0.0	 0.0	 0.0	 0.0	 0.0	 0.0	 0.0	 0.0	 100.0;
	64	 873.77	 0.0	 500.0	 -500.0	 1.0107	 100.0	 1	 1195.77	 551.77	 0.0	 0.0	 0.0	 0.0	 0.0	 0.0	 0.0	 0.0	 0.0	 0.0	 1195.7679;
	65	 55.595	 0.0	 60.05	 -60.05	 1.0013	 100.0	 1	 100.0	 11.19	 0.0	 0.0	 0.0	 0.0	 0.0	 0.0	 0.0	 0.0	 0.0	 0.0	 100.0;
	82	 55.595	 0.0	 60.05	 -60.05	 1.0013	 100.0	 1	 100.0	 11.19	 0.0	 0.0	 0.0	 0.0	 0.0	 0.0	 0.0	 0.0	 0.0	 0.0	 100.0;
	89	 137.0	 14.97	 149.7	 -119.76	 1.0312	 100.0	 1	 274.0	 0.0	 0.0	 0.0	 0.0	 0.0	 0.0	 0.0	 0.0	 0.0	 0.0	 0.0	 274.0;
	96	 55.595	 0.0	 60.05	 -60.05	 1.0013	 100.0	 1	 100.0	 11.19	 0.0	 0.0	 0.0	 0.0	 0.0	 0.0	 0.0	 0.0	 0.0	 0.0	 100.0;
	105	 149.415	 0.0	 33.33	 -33.33	 0.9955	 100.0	 0	 297.0	 1.83	 0.0	 0.0	 0.0	 0.0	 0.0	 0.0	 0.0	 0.0	 0.0	 0.0	 297.0;
	108	 144.0	 0.0	 61.1	 -61.1	 1.0167	 100.0	 1	 288.0	 0.0	 0.0	 0.0	 0.0	 0.0	 0.0	 0.0	 0.0	 0.0	 0.0	 0.0	 288.0;
	117	 141.0	 0.0	 61.1	 -61.1	 1.0129	 100.0	 1	 282.0	 0.0	 0.0	 0.0	 0.0	 0.0	 0.0	 0.0	 0.0	 0.0	 0.0	 0.0	 282.0;
	126	 66.345	 0.0	 500.0	 -500.0	 1.0088	 100.0	 1	 92.8	 39.89	 0.0	 0.0	 0.0	 0.0	 0.0	 0.0	 0.0	 0.0	 0.0	 0.0	 92.804;
	128	 307.63	 0.0	 33.33	 -33.33	 0.9919	 100.0	 0	 315.13	 300.13	 0.0	 0.0	 0.0	 0.0	 0.0	 0.0	 0.0	 0.0	 0.0	 0.0	 315.13;
	129	 128.04	 0.0	 28.32	 -28.32	 1.0	 200.0	 1	 200.0	 56.08	 0.0	 0.0	 0.0	 0.0	 0.0	 0.0	 0.0	 0.0	 0.0	 0.0	 200.0;
	130	 128.04	 0.0	 28.32	 -28.32	 1.0	 200.0	 1	 200.0	 56.08	 0.0	 0.0	 0.0	 0.0	 0.0	 0.0	 0.0	 0.0	 0.0	 0.0	 200.0;
	131	 128.04	 0.0	 28.32	 -28.32	 1.0	 200.0	 1	 200.0	 56.08	 0.0	 0.0	 0.0	 0.0	 0.0	 0.0	 0.0	 0.0	 0.0	 0.0	 200.0;
	132	 128.04	 0.0	 28.32	 -28.32	 1.0	 200.0	 1	 200.0	 56.08	 0.0	 0.0	 0.0	 0.0	 0.0	 0.0	 0.0	 0.0	 0.0	 0.0	 200.0;
	133	 128.04	 0.0	 28.32	 -28.32	 1.0	 200.0	 1	 200.0	 56.08	 0.0	 0.0	 0.0	 0.0	 0.0	 0.0	 0.0	 0.0	 0.0	 0.0	 200.0;
	134	 128.04	 0.0	 28.32	 -28.32	 1.0	 200.0	 1	 200.0	 56.08	 0.0	 0.0	 0.0	 0.0	 0.0	 0.0	 0.0	 0.0	 0.0	 0.0	 200.0;
	136	 60.435	 0.0	 16.78	 -16.78	 0.9994	 100.0	 1	 100.0	 20.87	 0.0	 0.0	 0.0	 0.0	 0.0	 0.0	 0.0	 0.0	 0.0	 0.0	 100.0;
	142	 129.5	 0.0	 86.64	 -86.64	 0.9843	 100.0	 1	 259.0	 0.0	 0.0	 0.0	 0.0	 0.0	 0.0	 0.0	 0.0	 0.0	 0.0	 0.0	 259.0;
	143	 710.92	 0.0	 500.0	 -500.0	 0.9928	 100.0	 1	 835.31	 586.53	 0.0	 0.0	 0.0	 0.0	 0.0	 0.0	 0.0	 0.0	 0.0	 0.0	 835.31;
	146	 245.65	 0.0	 33.33	 -33.33	 0.9949	 100.0	 0	 253.15	 238.15	 0.0	 0.0	 0.0	 0.0	 0.0	 0.0	 0.0	 0.0	 0.0	 0.0	 253.152;
	150	 151.08	 0.0	 33.33	 -33.33	 0.9979	 100.0	 0	 158.58	 143.58	 0.0	 0.0	 0.0	 0.0	 0.0	 0.0	 0.0	 0.0	 0.0	 0.0	 158.58;
	151	 24.97	 0.0	 500.0	 -500.0	 0.985	 100.0	 1	 49.37	 0.57	 0.0	 0.0	 0.0	 0.0	 0.0	 0.0	 0.0	 0.0	 0.0	 0.0	 49.372;
	153	 350.0	 0.0	 86.91	 -86.91	 0.9999	 600.0	 1	 600.0	 100.0	 0.0	 0.0	 0.0	 0.0	 0.0	 0.0	 0.0	 0.0	 0.0	 0.0	 600.0;
	157	 350.0	 0.0	 86.91	 -86.91	 0.9999	 600.0	 1	 600.0	 100.0	 0.0	 0.0	 0.0	 0.0	 0.0	 0.0	 0.0	 0.0	 0.0	 0.0	 600.0;
	163	 62.95	 0.0	 24.04	 -24.04	 0.9999	 100.0	 1	 100.0	 25.9	 0.0	 0.0	 0.0	 0.0	 0.0	 0.0	 0.0	 0.0	 0.0	 0.0	 100.0;
	165	 57.115	 0.0	 22.31	 -22.31	 1.0	 100.0	 1	 100.0	 14.23	 0.0	 0.0	 0.0	 0.0	 0.0	 0.0	 0.0	 0.0	 0.0	 0.0	 100.0;
	166	 500.0	 0.0	 122.95	 -122.95	 1.001	 800.0	 1	 800.0	 200.0	 0.0	 0.0	 0.0	 0.0	 0.0	 0.0	 0.0	 0.0	 0.0	 0.0	 800.0;
	167	 500.0	 0.0	 122.95	 -122.95	 1.001	 800.0	 1	 800.0	 200.0	 0.0	 0.0	 0.0	 0.0	 0.0	 0.0	 0.0	 0.0	 0.0	 0.0	 800.0;
	168	 500.0	 0.0	 122.95	 -122.95	 1.001	 800.0	 1	 800.0	 200.0	 0.0	 0.0	 0.0	 0.0	 0.0	 0.0	 0.0	 0.0	 0.0	 0.0	 800.0;
	169	 500.0	 0.0	 122.95	 -122.95	 1.001	 800.0	 1	 800.0	 200.0	 0.0	 0.0	 0.0	 0.0	 0.0	 0.0	 0.0	 0.0	 0.0	 0.0	 800.0;
	176	 450.0	 0.0	 121.64	 -121.64	 1.0012	 700.0	 1	 700.0	 200.0	 0.0	 0.0	 0.0	 0.0	 0.0	 0.0	 0.0	 0.0	 0.0	 0.0	 700.0;
	179	 128.04	 0.0	 28.32	 -28.32	 1.0	 200.0	 1	 200.0	 56.08	 0.0	 0.0	 0.0	 0.0	 0.0	 0.0	 0.0	 0.0	 0.0	 0.0	 200.0;
	180	 128.04	 0.0	 28.32	 -28.32	 1.0	 200.0	 1	 200.0	 56.08	 0.0	 0.0	 0.0	 0.0	 0.0	 0.0	 0.0	 0.0	 0.0	 0.0	 200.0;
	182	 350.0	 0.0	 86.91	 -86.91	 0.9999	 600.0	 1	 600.0	 100.0	 0.0	 0.0	 0.0	 0.0	 0.0	 0.0	 0.0	 0.0	 0.0	 0.0	 600.0;
	185	 53.59	 0.0	 15.59	 -15.59	 0.9981	 100.0	 1	 100.0	 7.18	 0.0	 0.0	 0.0	 0.0	 0.0	 0.0	 0.0	 0.0	 0.0	 0.0	 100.0;
	187	 450.0	 0.0	 121.64	 -121.64	 1.0012	 700.0	 1	 700.0	 200.0	 0.0	 0.0	 0.0	 0.0	 0.0	 0.0	 0.0	 0.0	 0.0	 0.0	 700.0;
	188	 450.0	 0.0	 121.64	 -121.64	 1.0012	 700.0	 1	 700.0	 200.0	 0.0	 0.0	 0.0	 0.0	 0.0	 0.0	 0.0	 0.0	 0.0	 0.0	 700.0;
	189	 450.0	 0.0	 121.64	 -121.64	 1.0012	 700.0	 1	 700.0	 200.0	 0.0	 0.0	 0.0	 0.0	 0.0	 0.0	 0.0	 0.0	 0.0	 0.0	 700.0;
	194	 144.0	 0.0	 75.98	 -75.98	 0.987	 100.0	 1	 288.0	 0.0	 0.0	 0.0	 0.0	 0.0	 0.0	 0.0	 0.0	 0.0	 0.0	 0.0	 288.0;
	202	 67.18	 0.0	 33.33	 -33.33	 0.9808	 100.0	 0	 74.68	 59.68	 0.0	 0.0	 0.0	 0.0	 0.0	 0.0	 0.0	 0.0	 0.0	 0.0	 74.677;
	204	 350.0	 0.0	 86.91	 -86.91	 0.9999	 600.0	 1	 600.0	 100.0	 0.0	 0.0	 0.0	 0.0	 0.0	 0.0	 0.0	 0.0	 0.0	 0.0	 600.0;
	210	 56.3	 0.0	 18.22	 -18.22	 0.9987	 100.0	 1	 100.0	 12.6	 0.0	 0.0	 0.0	 0.0	 0.0	 0.0	 0.0	 0.0	 0.0	 0.0	 100.0;
	213	 56.8	 0.0	 19.22	 -19.22	 0.9998	 100.0	 1	 100.0	 13.6	 0.0	 0.0	 0.0	 0.0	 0.0	 0.0	 0.0	 0.0	 0.0	 0.0	 100.0;
	216	 309.775	 0.0	 500.0	 -500.0	 0.9754	 100.0	 1	 371.73	 247.82	 0.0	 0.0	 0.0	 0.0	 0.0	 0.0	 0.0	 0.0	 0.0	 0.0	 371.734;
	224	 56.795	 0.0	 22.36	 -22.36	 0.9984	 100.0	 1	 100.0	 13.59	 0.0	 0.0	 0.0	 0.0	 0.0	 0.0	 0.0	 0.0	 0.0	 0.0	 100.0;
	227	 132.0	 0.0	 440.92	 -440.92	 1.0159	 100.0	 1	 264.0	 0.0	 0.0	 0.0	 0.0	 0.0	 0.0	 0.0	 0.0	 0.0	 0.0	 0.0	 264.0;
	227	 322.3	 0.0	 500.0	 -500.0	 1.0159	 100.0	 1	 386.76	 257.84	 0.0	 0.0	 0.0	 0.0	 0.0	 0.0	 0.0	 0.0	 0.0	 0.0	 386.761;
	229	 124.955	 0.0	 25.66	 -25.66	 0.9983	 200.0	 1	 200.0	 49.91	 0.0	 0.0	 0.0	 0.0	 0.0	 0.0	 0.0	 0.0	 0.0	 0.0	 200.0;
	230	 59.125	 0.0	 24.93	 -24.93	 0.9986	 100.0	 1	 100.0	 18.25	 0.0	 0.0	 0.0	 0.0	 0.0	 0.0	 0.0	 0.0	 0.0	 0.0	 100.0;
	232	 57.455	 0.0	 22.3	 -22.3	 0.9986	 100.0	 1	 100.0	 14.91	 0.0	 0.0	 0.0	 0.0	 0.0	 0.0	 0.0	 0.0	 0.0	 0.0	 100.0;
	237	 199.31	 0.0	 16.42	 -16.42	 1.0016	 300.0	 1	 300.0	 98.62	 0.0	 0.0	 0.0	 0.0	 0.0	 0.0	 0.0	 0.0	 0.0	 0.0	 300.0;
	238	 57.625	 0.0	 22.17	 -22.17	 0.9986	 100.0	 1	 100.0	 15.25	 0.0	 0.0	 0.0	 0.0	 0.0	 0.0	 0.0	 0.0	 0.0	 0.0	 100.0;
	239	 500.0	 96.235	 195.0	 -2.53	 1.0015	 800.0	 1	 800.0	 200.0	 0.0	 0.0	 0.0	 0.0	 0.0	 0.0	 0.0	 0.0	 0.0	 0.0	 800.0;
	242	 45.44	 0.0	 500.0	 -500.0	 0.9841	 100.0	 1	 59.84	 31.04	 0.0	 0.0	 0.0	 0.0	 0.0	 0.0	 0.0	 0.0	 0.0	 0.0	 59.838;
	244	 393.46	 0.0	 33.33	 -33.33	 0.997	 100.0	 0	 400.96	 385.96	 0.0	 0.0	 0.0	 0.0	 0.0	 0.0	 0.0	 0.0	 0.0	 0.0	 400.964;
	247	 13.49	 0.0	 500.0	 -500.0	 0.9857	 100.0	 1	 26.39	 0.59	 0.0	 0.0	 0.0	 0.0	 0.0	 0.0	 0.0	 0.0	 0.0	 0.0	 26.389;
	248	 337.55	 0.0	 500.0	 -500.0	 1.012	 100.0	 1	 405.06	 270.04	 0.0	 0.0	 0.0	 0.0	 0.0	 0.0	 0.0	 0.0	 0.0	 0.0	 405.056;
	255	 59.125	 0.0	 24.93	 -24.93	 0.9986	 100.0	 1	 100.0	 18.25	 0.0	 0.0	 0.0	 0.0	 0.0	 0.0	 0.0	 0.0	 0.0	 0.0	 100.0;
	256	 124.955	 0.0	 25.66	 -25.66	 0.9983	 200.0	 1	 200.0	 49.91	 0.0	 0.0	 0.0	 0.0	 0.0	 0.0	 0.0	 0.0	 0.0	 0.0	 200.0;
	258	 57.455	 0.0	 22.3	 -22.3	 0.9986	 100.0	 1	 100.0	 14.91	 0.0	 0.0	 0.0	 0.0	 0.0	 0.0	 0.0	 0.0	 0.0	 0.0	 100.0;
	261	 124.955	 0.0	 25.66	 -25.66	 0.9983	 200.0	 1	 200.0	 49.91	 0.0	 0.0	 0.0	 0.0	 0.0	 0.0	 0.0	 0.0	 0.0	 0.0	 200.0;
	269	 56.795	 0.0	 22.36	 -22.36	 0.9984	 100.0	 1	 100.0	 13.59	 0.0	 0.0	 0.0	 0.0	 0.0	 0.0	 0.0	 0.0	 0.0	 0.0	 100.0;
	270	 500.0	 95.235	 193.0	 -2.53	 1.0015	 800.0	 1	 800.0	 200.0	 0.0	 0.0	 0.0	 0.0	 0.0	 0.0	 0.0	 0.0	 0.0	 0.0	 800.0;
	273	 57.625	 0.0	 22.17	 -22.17	 0.9986	 100.0	 1	 100.0	 15.25	 0.0	 0.0	 0.0	 0.0	 0.0	 0.0	 0.0	 0.0	 0.0	 0.0	 100.0;
	279	 60.45	 0.0	 34.68	 -34.68	 1.0014	 100.0	 1	 100.0	 20.9	 0.0	 0.0	 0.0	 0.0	 0.0	 0.0	 0.0	 0.0	 0.0	 0.0	 100.0;
	280	 58.405	 0.0	 36.4	 -36.4	 1.001	 100.0	 1	 100.0	 16.81	 0.0	 0.0	 0.0	 0.0	 0.0	 0.0	 0.0	 0.0	 0.0	 0.0	 100.0;
	284	 291.705	 0.0	 500.0	 -500.0	 0.9798	 100.0	 1	 391.25	 192.16	 0.0	 0.0	 0.0	 0.0	 0.0	 0.0	 0.0	 0.0	 0.0	 0.0	 391.254;
	289	 57.425	 0.0	 21.85	 -21.85	 1.0016	 100.0	 1	 100.0	 14.85	 0.0	 0.0	 0.0	 0.0	 0.0	 0.0	 0.0	 0.0	 0.0	 0.0	 100.0;
	292	 57.425	 0.0	 48.87	 -48.87	 1.0015	 100.0	 1	 100.0	 14.85	 0.0	 0.0	 0.0	 0.0	 0.0	 0.0	 0.0	 0.0	 0.0	 0.0	 100.0;
	293	 57.425	 0.0	 48.87	 -48.87	 1.0015	 100.0	 1	 100.0	 14.85	 0.0	 0.0	 0.0	 0.0	 0.0	 0.0	 0.0	 0.0	 0.0	 0.0	 100.0;
	295	 60.45	 0.0	 34.68	 -34.68	 1.0014	 100.0	 1	 100.0	 20.9	 0.0	 0.0	 0.0	 0.0	 0.0	 0.0	 0.0	 0.0	 0.0	 0.0	 100.0;
	300	 58.935	 0.0	 29.48	 -29.48	 1.0016	 100.0	 1	 100.0	 17.87	 0.0	 0.0	 0.0	 0.0	 0.0	 0.0	 0.0	 0.0	 0.0	 0.0	 100.0;
	301	 58.935	 0.0	 29.48	 -29.48	 1.0016	 100.0	 1	 100.0	 17.87	 0.0	 0.0	 0.0	 0.0	 0.0	 0.0	 0.0	 0.0	 0.0	 0.0	 100.0;
	302	 139.0	 0.0	 204.62	 -204.62	 0.9711	 100.0	 1	 278.0	 0.0	 0.0	 0.0	 0.0	 0.0	 0.0	 0.0	 0.0	 0.0	 0.0	 0.0	 278.0;
	302	 1355.925	 0.0	 500.0	 -500.0	 0.9711	 100.0	 1	 1627.11	 1084.74	 0.0	 0.0	 0.0	 0.0	 0.0	 0.0	 0.0	 0.0	 0.0	 0.0	 1627.1121;
	303	 57.485	 0.0	 56.99	 -56.99	 1.0015	 100.0	 1	 100.0	 14.97	 0.0	 0.0	 0.0	 0.0	 0.0	 0.0	 0.0	 0.0	 0.0	 0.0	 100.0;
	306	 56.175	 0.0	 43.22	 -43.22	 1.0016	 100.0	 1	 100.0	 12.35	 0.0	 0.0	 0.0	 0.0	 0.0	 0.0	 0.0	 0.0	 0.0	 0.0	 100.0;
	307	 56.175	 0.0	 43.22	 -43.22	 1.0016	 100.0	 1	 100.0	 12.35	 0.0	 0.0	 0.0	 0.0	 0.0	 0.0	 0.0	 0.0	 0.0	 0.0	 100.0;
	308	 56.79	 0.0	 20.9	 -20.9	 1.0016	 100.0	 1	 100.0	 13.58	 0.0	 0.0	 0.0	 0.0	 0.0	 0.0	 0.0	 0.0	 0.0	 0.0	 100.0;
	313	 56.175	 0.0	 43.22	 -43.22	 1.0016	 100.0	 1	 100.0	 12.35	 0.0	 0.0	 0.0	 0.0	 0.0	 0.0	 0.0	 0.0	 0.0	 0.0	 100.0;
	314	 75.03	 0.0	 33.33	 -33.33	 0.984	 100.0	 0	 82.53	 67.53	 0.0	 0.0	 0.0	 0.0	 0.0	 0.0	 0.0	 0.0	 0.0	 0.0	 82.526;
	317	 58.935	 0.0	 29.48	 -29.48	 1.0016	 100.0	 1	 100.0	 17.87	 0.0	 0.0	 0.0	 0.0	 0.0	 0.0	 0.0	 0.0	 0.0	 0.0	 100.0;
	318	 58.935	 0.0	 29.48	 -29.48	 1.0016	 100.0	 1	 100.0	 17.87	 0.0	 0.0	 0.0	 0.0	 0.0	 0.0	 0.0	 0.0	 0.0	 0.0	 100.0;
	322	 57.485	 0.0	 56.99	 -56.99	 1.0015	 100.0	 1	 100.0	 14.97	 0.0	 0.0	 0.0	 0.0	 0.0	 0.0	 0.0	 0.0	 0.0	 0.0	 100.0;
	323	 57.485	 0.0	 56.99	 -56.99	 1.0015	 100.0	 1	 100.0	 14.97	 0.0	 0.0	 0.0	 0.0	 0.0	 0.0	 0.0	 0.0	 0.0	 0.0	 100.0;
	324	 57.425	 0.0	 21.85	 -21.85	 1.0016	 100.0	 1	 100.0	 14.85	 0.0	 0.0	 0.0	 0.0	 0.0	 0.0	 0.0	 0.0	 0.0	 0.0	 100.0;
	325	 57.425	 0.0	 21.85	 -21.85	 1.0016	 100.0	 1	 100.0	 14.85	 0.0	 0.0	 0.0	 0.0	 0.0	 0.0	 0.0	 0.0	 0.0	 0.0	 100.0;
	326	 56.79	 0.0	 20.9	 -20.9	 1.0016	 100.0	 1	 100.0	 13.58	 0.0	 0.0	 0.0	 0.0	 0.0	 0.0	 0.0	 0.0	 0.0	 0.0	 100.0;
	327	 56.79	 0.0	 20.9	 -20.9	 1.0016	 100.0	 1	 100.0	 13.58	 0.0	 0.0	 0.0	 0.0	 0.0	 0.0	 0.0	 0.0	 0.0	 0.0	 100.0;
	328	 57.425	 0.0	 21.85	 -21.85	 1.0016	 100.0	 1	 100.0	 14.85	 0.0	 0.0	 0.0	 0.0	 0.0	 0.0	 0.0	 0.0	 0.0	 0.0	 100.0;
	334	 18.9	 0.0	 27.22	 -27.22	 1.01	 100.0	 1	 37.8	 0.0	 0.0	 0.0	 0.0	 0.0	 0.0	 0.0	 0.0	 0.0	 0.0	 0.0	 37.8;
	335	 43.845	 0.0	 500.0	 -500.0	 0.9993	 100.0	 1	 54.65	 33.04	 0.0	 0.0	 0.0	 0.0	 0.0	 0.0	 0.0	 0.0	 0.0	 0.0	 54.645;
	336	 43.845	 0.0	 500.0	 -500.0	 0.9993	 100.0	 1	 54.65	 33.04	 0.0	 0.0	 0.0	 0.0	 0.0	 0.0	 0.0	 0.0	 0.0	 0.0	 54.645;
	339	 25.41	 0.0	 33.33	 -33.33	 1.0055	 100.0	 0	 32.91	 17.91	 0.0	 0.0	 0.0	 0.0	 0.0	 0.0	 0.0	 0.0	 0.0	 0.0	 32.912;
	343	 17.905	 0.0	 25.78	 -25.78	 1.01	 100.0	 1	 35.81	 0.0	 0.0	 0.0	 0.0	 0.0	 0.0	 0.0	 0.0	 0.0	 0.0	 0.0	 35.812;
	345	 23.44	 0.0	 33.75	 -33.75	 1.01	 100.0	 1	 46.88	 0.0	 0.0	 0.0	 0.0	 0.0	 0.0	 0.0	 0.0	 0.0	 0.0	 0.0	 46.875;
	347	 23.44	 0.0	 33.75	 -33.75	 1.01	 100.0	 1	 46.88	 0.0	 0.0	 0.0	 0.0	 0.0	 0.0	 0.0	 0.0	 0.0	 0.0	 0.0	 46.875;
	349	 31.05	 0.0	 44.71	 -44.71	 1.01	 100.0	 1	 62.1	 0.0	 0.0	 0.0	 0.0	 0.0	 0.0	 0.0	 0.0	 0.0	 0.0	 0.0	 62.1;
	351	 21.565	 0.0	 31.05	 -31.05	 1.0033	 100.0	 1	 43.13	 0.0	 0.0	 0.0	 0.0	 0.0	 0.0	 0.0	 0.0	 0.0	 0.0	 0.0	 43.125;
	352	 21.565	 0.0	 31.05	 -31.05	 1.0067	 100.0	 1	 43.13	 0.0	 0.0	 0.0	 0.0	 0.0	 0.0	 0.0	 0.0	 0.0	 0.0	 0.0	 43.125;
	354	 24.94	 0.0	 500.0	 -500.0	 1.016	 100.0	 1	 39.69	 10.19	 0.0	 0.0	 0.0	 0.0	 0.0	 0.0	 0.0	 0.0	 0.0	 0.0	 39.69;
	356	 34.69	 0.0	 49.95	 -49.95	 1.0067	 100.0	 1	 69.38	 0.0	 0.0	 0.0	 0.0	 0.0	 0.0	 0.0	 0.0	 0.0	 0.0	 0.0	 69.375;
	360	 9.375	 0.0	 13.5	 -13.5	 1.01	 100.0	 1	 18.75	 0.0	 0.0	 0.0	 0.0	 0.0	 0.0	 0.0	 0.0	 0.0	 0.0	 0.0	 18.75;
	361	 9.375	 0.0	 13.5	 -13.5	 1.01	 100.0	 1	 18.75	 0.0	 0.0	 0.0	 0.0	 0.0	 0.0	 0.0	 0.0	 0.0	 0.0	 0.0	 18.75;
	362	 9.375	 0.0	 13.5	 -13.5	 1.01	 100.0	 1	 18.75	 0.0	 0.0	 0.0	 0.0	 0.0	 0.0	 0.0	 0.0	 0.0	 0.0	 0.0	 18.75;
	365	 36.17	 0.0	 33.33	 -33.33	 1.0123	 100.0	 0	 43.67	 28.67	 0.0	 0.0	 0.0	 0.0	 0.0	 0.0	 0.0	 0.0	 0.0	 0.0	 43.668;
	367	 43.675	 0.0	 63.18	 -63.18	 1.01	 100.0	 1	 87.35	 0.0	 0.0	 0.0	 0.0	 0.0	 0.0	 0.0	 0.0	 0.0	 0.0	 0.0	 87.345;
	369	 16.925	 0.0	 24.37	 -24.37	 1.01	 100.0	 1	 33.85	 0.0	 0.0	 0.0	 0.0	 0.0	 0.0	 0.0	 0.0	 0.0	 0.0	 0.0	 33.85;
	370	 32.64	 0.0	 33.33	 -33.33	 1.0197	 100.0	 0	 40.14	 25.14	 0.0	 0.0	 0.0	 0.0	 0.0	 0.0	 0.0	 0.0	 0.0	 0.0	 40.138;
	374	 18.72	 0.0	 33.33	 -33.33	 1.0058	 100.0	 0	 26.22	 11.22	 0.0	 0.0	 0.0	 0.0	 0.0	 0.0	 0.0	 0.0	 0.0	 0.0	 26.224;
	375	 138.75	 0.0	 33.33	 -33.33	 1.006	 100.0	 0	 269.0	 8.5	 0.0	 0.0	 0.0	 0.0	 0.0	 0.0	 0.0	 0.0	 0.0	 0.0	 269.0;
	376	 27.21	 0.0	 33.33	 -33.33	 1.006	 100.0	 0	 34.71	 19.71	 0.0	 0.0	 0.0	 0.0	 0.0	 0.0	 0.0	 0.0	 0.0	 0.0	 34.714;
	377	 79.7	 0.0	 33.33	 -33.33	 1.0147	 100.0	 0	 87.2	 72.2	 0.0	 0.0	 0.0	 0.0	 0.0	 0.0	 0.0	 0.0	 0.0	 0.0	 87.2;
	382	 21.885	 0.0	 500.0	 -500.0	 1.0096	 100.0	 1	 42.77	 1.0	 0.0	 0.0	 0.0	 0.0	 0.0	 0.0	 0.0	 0.0	 0.0	 0.0	 42.766;
	383	 34.08	 0.0	 500.0	 -500.0	 1.012	 100.0	 1	 49.67	 18.49	 0.0	 0.0	 0.0	 0.0	 0.0	 0.0	 0.0	 0.0	 0.0	 0.0	 49.675;
	388	 51.175	 0.0	 500.0	 -500.0	 1.0139	 100.0	 1	 95.57	 6.78	 0.0	 0.0	 0.0	 0.0	 0.0	 0.0	 0.0	 0.0	 0.0	 0.0	 95.575;
	412	 23.44	 0.0	 33.75	 -33.75	 1.01	 100.0	 1	 46.88	 0.0	 0.0	 0.0	 0.0	 0.0	 0.0	 0.0	 0.0	 0.0	 0.0	 0.0	 46.875;
	417	 32.01	 0.0	 500.0	 -500.0	 0.9842	 100.0	 1	 41.74	 22.28	 0.0	 0.0	 0.0	 0.0	 0.0	 0.0	 0.0	 0.0	 0.0	 0.0	 41.739;
	421	 14.065	 0.0	 20.25	 -20.25	 1.0067	 100.0	 1	 28.13	 0.0	 0.0	 0.0	 0.0	 0.0	 0.0	 0.0	 0.0	 0.0	 0.0	 0.0	 28.125;
	422	 24.46	 0.0	 500.0	 -500.0	 0.9972	 100.0	 1	 33.5	 15.42	 0.0	 0.0	 0.0	 0.0	 0.0	 0.0	 0.0	 0.0	 0.0	 0.0	 33.499;
	438	 41.25	 0.0	 59.4	 -59.4	 1.01	 100.0	 1	 82.5	 0.0	 0.0	 0.0	 0.0	 0.0	 0.0	 0.0	 0.0	 0.0	 0.0	 0.0	 82.5;
	444	 130.98	 0.0	 33.33	 -33.33	 0.9794	 100.0	 0	 261.0	 0.96	 0.0	 0.0	 0.0	 0.0	 0.0	 0.0	 0.0	 0.0	 0.0	 0.0	 261.0;
	445	 81.07	 0.0	 33.33	 -33.33	 1.0043	 100.0	 0	 88.57	 73.57	 0.0	 0.0	 0.0	 0.0	 0.0	 0.0	 0.0	 0.0	 0.0	 0.0	 88.567;
	446	 64.39	 91.28	 188.0	 -5.44	 0.9986	 100.0	 1	 100.0	 28.78	 0.0	 0.0	 0.0	 0.0	 0.0	 0.0	 0.0	 0.0	 0.0	 0.0	 100.0;
	447	 64.39	 95.78	 197.0	 -5.44	 0.9986	 100.0	 1	 100.0	 28.78	 0.0	 0.0	 0.0	 0.0	 0.0	 0.0	 0.0	 0.0	 0.0	 0.0	 100.0;
	448	 64.39	 86.28	 178.0	 -5.44	 0.9986	 100.0	 1	 100.0	 28.78	 0.0	 0.0	 0.0	 0.0	 0.0	 0.0	 0.0	 0.0	 0.0	 0.0	 100.0;
	449	 81.375	 0.0	 33.33	 -33.33	 1.0043	 100.0	 0	 88.88	 73.87	 0.0	 0.0	 0.0	 0.0	 0.0	 0.0	 0.0	 0.0	 0.0	 0.0	 88.875;
	452	 193.835	 0.0	 32.63	 -32.63	 0.9977	 300.0	 1	 300.0	 87.67	 0.0	 0.0	 0.0	 0.0	 0.0	 0.0	 0.0	 0.0	 0.0	 0.0	 300.0;
	458	 55.505	 0.0	 500.0	 -500.0	 0.9769	 100.0	 1	 108.04	 2.97	 0.0	 0.0	 0.0	 0.0	 0.0	 0.0	 0.0	 0.0	 0.0	 0.0	 108.038;
	460	 130.0	 0.0	 169.4	 -169.4	 1.0038	 100.0	 1	 260.0	 0.0	 0.0	 0.0	 0.0	 0.0	 0.0	 0.0	 0.0	 0.0	 0.0	 0.0	 260.0;
	467	 64.39	 96.28	 198.0	 -5.44	 0.9986	 100.0	 1	 100.0	 28.78	 0.0	 0.0	 0.0	 0.0	 0.0	 0.0	 0.0	 0.0	 0.0	 0.0	 100.0;
	468	 64.39	 92.28	 190.0	 -5.44	 0.9986	 100.0	 1	 100.0	 28.78	 0.0	 0.0	 0.0	 0.0	 0.0	 0.0	 0.0	 0.0	 0.0	 0.0	 100.0;
	469	 64.39	 92.28	 190.0	 -5.44	 0.9986	 100.0	 1	 100.0	 28.78	 0.0	 0.0	 0.0	 0.0	 0.0	 0.0	 0.0	 0.0	 0.0	 0.0	 100.0;
	470	 64.39	 84.78	 175.0	 -5.44	 0.9986	 100.0	 1	 100.0	 28.78	 0.0	 0.0	 0.0	 0.0	 0.0	 0.0	 0.0	 0.0	 0.0	 0.0	 100.0;
	471	 64.39	 84.78	 175.0	 -5.44	 0.9986	 100.0	 1	 100.0	 28.78	 0.0	 0.0	 0.0	 0.0	 0.0	 0.0	 0.0	 0.0	 0.0	 0.0	 100.0;
	472	 64.39	 94.78	 195.0	 -5.44	 0.9986	 100.0	 1	 100.0	 28.78	 0.0	 0.0	 0.0	 0.0	 0.0	 0.0	 0.0	 0.0	 0.0	 0.0	 100.0;
	473	 64.39	 90.78	 187.0	 -5.44	 0.9986	 100.0	 1	 100.0	 28.78	 0.0	 0.0	 0.0	 0.0	 0.0	 0.0	 0.0	 0.0	 0.0	 0.0	 100.0;
	476	 60.31	 87.48	 184.0	 -9.04	 0.9981	 100.0	 1	 100.0	 20.62	 0.0	 0.0	 0.0	 0.0	 0.0	 0.0	 0.0	 0.0	 0.0	 0.0	 100.0;
	477	 55.425	 0.0	 26.98	 -26.98	 0.9987	 100.0	 1	 100.0	 10.85	 0.0	 0.0	 0.0	 0.0	 0.0	 0.0	 0.0	 0.0	 0.0	 0.0	 100.0;
	478	 60.31	 87.48	 184.0	 -9.04	 0.9981	 100.0	 1	 100.0	 20.62	 0.0	 0.0	 0.0	 0.0	 0.0	 0.0	 0.0	 0.0	 0.0	 0.0	 100.0;
	484	 139.5	 0.0	 189.9	 -189.9	 0.9896	 100.0	 1	 279.0	 0.0	 0.0	 0.0	 0.0	 0.0	 0.0	 0.0	 0.0	 0.0	 0.0	 0.0	 279.0;
	484	 248.72	 0.0	 33.33	 -33.33	 0.9896	 100.0	 0	 256.22	 241.22	 0.0	 0.0	 0.0	 0.0	 0.0	 0.0	 0.0	 0.0	 0.0	 0.0	 256.221;
	492	 131.5	 0.0	 101.08	 -101.08	 0.9911	 100.0	 1	 263.0	 0.0	 0.0	 0.0	 0.0	 0.0	 0.0	 0.0	 0.0	 0.0	 0.0	 0.0	 263.0;
	503	 141.5	 0.0	 127.5	 -127.5	 1.0037	 100.0	 1	 283.0	 0.0	 0.0	 0.0	 0.0	 0.0	 0.0	 0.0	 0.0	 0.0	 0.0	 0.0	 283.0;
	505	 64.39	 90.28	 186.0	 -5.44	 0.9986	 100.0	 1	 100.0	 28.78	 0.0	 0.0	 0.0	 0.0	 0.0	 0.0	 0.0	 0.0	 0.0	 0.0	 100.0;
	506	 64.39	 85.28	 176.0	 -5.44	 0.9986	 100.0	 1	 100.0	 28.78	 0.0	 0.0	 0.0	 0.0	 0.0	 0.0	 0.0	 0.0	 0.0	 0.0	 100.0;
	507	 64.39	 95.78	 197.0	 -5.44	 0.9986	 100.0	 1	 100.0	 28.78	 0.0	 0.0	 0.0	 0.0	 0.0	 0.0	 0.0	 0.0	 0.0	 0.0	 100.0;
	508	 64.39	 87.28	 180.0	 -5.44	 0.9986	 100.0	 1	 100.0	 28.78	 0.0	 0.0	 0.0	 0.0	 0.0	 0.0	 0.0	 0.0	 0.0	 0.0	 100.0;
	509	 64.39	 87.28	 180.0	 -5.44	 0.9986	 100.0	 1	 100.0	 28.78	 0.0	 0.0	 0.0	 0.0	 0.0	 0.0	 0.0	 0.0	 0.0	 0.0	 100.0;
	510	 64.39	 86.28	 178.0	 -5.44	 0.9986	 100.0	 1	 100.0	 28.78	 0.0	 0.0	 0.0	 0.0	 0.0	 0.0	 0.0	 0.0	 0.0	 0.0	 100.0;
	511	 64.39	 86.28	 178.0	 -5.44	 0.9986	 100.0	 1	 100.0	 28.78	 0.0	 0.0	 0.0	 0.0	 0.0	 0.0	 0.0	 0.0	 0.0	 0.0	 100.0;
	514	 64.39	 94.28	 194.0	 -5.44	 0.9986	 100.0	 1	 100.0	 28.78	 0.0	 0.0	 0.0	 0.0	 0.0	 0.0	 0.0	 0.0	 0.0	 0.0	 100.0;
	515	 64.39	 88.78	 183.0	 -5.44	 0.9986	 100.0	 1	 100.0	 28.78	 0.0	 0.0	 0.0	 0.0	 0.0	 0.0	 0.0	 0.0	 0.0	 0.0	 100.0;
	516	 63.655	 6.0	 188.0	 -176.0	 0.9991	 100.0	 1	 100.0	 27.31	 0.0	 0.0	 0.0	 0.0	 0.0	 0.0	 0.0	 0.0	 0.0	 0.0	 100.0;
	517	 63.655	 4.5	 189.0	 -180.0	 0.9991	 100.0	 1	 100.0	 27.31	 0.0	 0.0	 0.0	 0.0	 0.0	 0.0	 0.0	 0.0	 0.0	 0.0	 100.0;
	518	 63.655	 15.5	 198.0	 -167.0	 0.9991	 100.0	 1	 100.0	 27.31	 0.0	 0.0	 0.0	 0.0	 0.0	 0.0	 0.0	 0.0	 0.0	 0.0	 100.0;
	520	 57.9	 0.0	 20.46	 -20.46	 0.9985	 100.0	 1	 100.0	 15.8	 0.0	 0.0	 0.0	 0.0	 0.0	 0.0	 0.0	 0.0	 0.0	 0.0	 100.0;
	521	 57.9	 0.0	 20.46	 -20.46	 0.9985	 100.0	 1	 100.0	 15.8	 0.0	 0.0	 0.0	 0.0	 0.0	 0.0	 0.0	 0.0	 0.0	 0.0	 100.0;
	522	 117.485	 86.045	 175.0	 -2.91	 1.0005	 200.0	 1	 200.0	 34.97	 0.0	 0.0	 0.0	 0.0	 0.0	 0.0	 0.0	 0.0	 0.0	 0.0	 200.0;
	523	 117.485	 93.545	 190.0	 -2.91	 1.0005	 200.0	 1	 200.0	 34.97	 0.0	 0.0	 0.0	 0.0	 0.0	 0.0	 0.0	 0.0	 0.0	 0.0	 200.0;
	524	 117.485	 93.545	 190.0	 -2.91	 1.0005	 200.0	 1	 200.0	 34.97	 0.0	 0.0	 0.0	 0.0	 0.0	 0.0	 0.0	 0.0	 0.0	 0.0	 200.0;
	525	 64.39	 86.78	 179.0	 -5.44	 0.9986	 100.0	 1	 100.0	 28.78	 0.0	 0.0	 0.0	 0.0	 0.0	 0.0	 0.0	 0.0	 0.0	 0.0	 100.0;
	527	 138.0	 0.0	 89.92	 -89.92	 1.0066	 100.0	 1	 276.0	 0.0	 0.0	 0.0	 0.0	 0.0	 0.0	 0.0	 0.0	 0.0	 0.0	 0.0	 276.0;
	527	 191.38	 0.0	 500.0	 -500.0	 1.0066	 100.0	 1	 240.2	 142.56	 0.0	 0.0	 0.0	 0.0	 0.0	 0.0	 0.0	 0.0	 0.0	 0.0	 240.197;
	534	 114.54	 0.0	 500.0	 -500.0	 1.0174	 100.0	 1	 211.64	 17.44	 0.0	 0.0	 0.0	 0.0	 0.0	 0.0	 0.0	 0.0	 0.0	 0.0	 211.644;
	536	 44.115	 0.0	 500.0	 -500.0	 0.9965	 100.0	 1	 86.35	 1.88	 0.0	 0.0	 0.0	 0.0	 0.0	 0.0	 0.0	 0.0	 0.0	 0.0	 86.354;
	541	 130.0	 -16.555	 132.44	 -165.55	 0.9994	 100.0	 1	 260.0	 0.0	 0.0	 0.0	 0.0	 0.0	 0.0	 0.0	 0.0	 0.0	 0.0	 0.0	 260.0;
	562	 153.26	 0.0	 33.33	 -33.33	 1.0151	 100.0	 0	 160.76	 145.76	 0.0	 0.0	 0.0	 0.0	 0.0	 0.0	 0.0	 0.0	 0.0	 0.0	 160.761;
	564	 55.595	 0.0	 60.05	 -60.05	 1.0013	 100.0	 1	 100.0	 11.19	 0.0	 0.0	 0.0	 0.0	 0.0	 0.0	 0.0	 0.0	 0.0	 0.0	 100.0;
	567	 278.115	 0.0	 40.29	 -40.29	 0.9988	 400.0	 1	 415.0	 141.23	 0.0	 0.0	 0.0	 0.0	 0.0	 0.0	 0.0	 0.0	 0.0	 0.0	 415.0;
	578	 193.265	 0.0	 33.33	 -33.33	 0.9996	 100.0	 0	 200.76	 185.77	 0.0	 0.0	 0.0	 0.0	 0.0	 0.0	 0.0	 0.0	 0.0	 0.0	 200.765;
	579	 128.5	 0.0	 60.96	 -60.96	 1.0093	 100.0	 1	 257.0	 0.0	 0.0	 0.0	 0.0	 0.0	 0.0	 0.0	 0.0	 0.0	 0.0	 0.0	 257.0;
	581	 137.0	 8.915	 89.15	 -71.32	 1.0309	 100.0	 1	 274.0	 0.0	 0.0	 0.0	 0.0	 0.0	 0.0	 0.0	 0.0	 0.0	 0.0	 0.0	 274.0;
	589	 27.77	 0.0	 500.0	 -500.0	 1.0045	 100.0	 1	 41.8	 13.74	 0.0	 0.0	 0.0	 0.0	 0.0	 0.0	 0.0	 0.0	 0.0	 0.0	 41.796;
	590	 140.0	 0.0	 77.68	 -77.68	 1.0073	 100.0	 1	 280.0	 0.0	 0.0	 0.0	 0.0	 0.0	 0.0	 0.0	 0.0	 0.0	 0.0	 0.0	 280.0;
	590	 88.74	 0.0	 33.33	 -33.33	 1.0073	 100.0	 0	 96.24	 81.24	 0.0	 0.0	 0.0	 0.0	 0.0	 0.0	 0.0	 0.0	 0.0	 0.0	 96.242;
	592	 921.475	 0.0	 500.0	 -500.0	 1.0068	 100.0	 1	 1105.77	 737.18	 0.0	 0.0	 0.0	 0.0	 0.0	 0.0	 0.0	 0.0	 0.0	 0.0	 1105.772;
	594	 55.595	 0.0	 60.05	 -60.05	 1.0013	 100.0	 1	 100.0	 11.19	 0.0	 0.0	 0.0	 0.0	 0.0	 0.0	 0.0	 0.0	 0.0	 0.0	 100.0;
	595	 27.575	 0.0	 500.0	 -500.0	 1.0128	 100.0	 1	 41.89	 13.26	 0.0	 0.0	 0.0	 0.0	 0.0	 0.0	 0.0	 0.0	 0.0	 0.0	 41.894;
	603	 134.0	 14.97	 149.7	 -119.76	 1.0312	 100.0	 1	 268.0	 0.0	 0.0	 0.0	 0.0	 0.0	 0.0	 0.0	 0.0	 0.0	 0.0	 0.0	 268.0;
	606	 250.0	 0.0	 40.06	 -40.06	 0.9988	 400.0	 1	 400.0	 100.0	 0.0	 0.0	 0.0	 0.0	 0.0	 0.0	 0.0	 0.0	 0.0	 0.0	 400.0;
	610	 20.23	 0.0	 500.0	 -500.0	 0.9943	 100.0	 1	 28.91	 11.55	 0.0	 0.0	 0.0	 0.0	 0.0	 0.0	 0.0	 0.0	 0.0	 0.0	 28.906;
	613	 250.0	 0.0	 40.06	 -40.06	 0.9988	 400.0	 1	 400.0	 100.0	 0.0	 0.0	 0.0	 0.0	 0.0	 0.0	 0.0	 0.0	 0.0	 0.0	 400.0;
	617	 55.595	 0.0	 60.05	 -60.05	 1.0013	 100.0	 1	 100.0	 11.19	 0.0	 0.0	 0.0	 0.0	 0.0	 0.0	 0.0	 0.0	 0.0	 0.0	 100.0;
	618	 26.5	 0.0	 500.0	 -500.0	 0.9865	 100.0	 1	 42.05	 10.95	 0.0	 0.0	 0.0	 0.0	 0.0	 0.0	 0.0	 0.0	 0.0	 0.0	 42.049;
	620	 141.0	 0.0	 214.58	 -214.58	 0.9968	 100.0	 1	 282.0	 0.0	 0.0	 0.0	 0.0	 0.0	 0.0	 0.0	 0.0	 0.0	 0.0	 0.0	 282.0;
...
];

%% generator cost data
%	2	startup	shutdown	n	c(n-1)	...	c0
mpc.gencost = [
	2	 0.0	 0.0	 3	   0.000000	  59.184856	   0.000000;
	2	 0.0	 0.0	 3	   0.000000	  45.816730	   0.000000;
	2	 0.0	 0.0	 3	   0.000000	  25.835716	   0.000000;
	2	 0.0	 0.0	 3	   0.000000	  67.095501	   0.000000;
	2	 0.0	 0.0	 3	   0.000000	  11.720558	   0.000000;
	2	 0.0	 0.0	 3	   0.000000	  45.032038	   0.000000;
	2	 0.0	 0.0	 3	   0.000000	  46.916436	   0.000000;
	2	 0.0	 0.0	 3	   0.000000	  51.347971	   0.000000;
	2	 0.0	 0.0	 3	   0.000000	  22.636397	   0.000000;
	2	 0.0	 0.0	 3	   0.000000	  46.199571	   0.000000;
	2	 0.0	 0.0	 3	   0.000000	 124.049466	   0.000000;
	2	 0.0	 0.0	 3	   0.000000	  17.498841	   0.000000;
	2	 0.0	 0.0	 3	   0.000000	   8.304825	   0.000000;
	2	 0.0	 0.0	 3	   0.000000	  49.174919	   0.000000;
	2	 0.0	 0.0	 3	   0.000000	   7.163849	   0.000000;
	2	 0.0	 0.0	 3	   0.000000	  24.589260	   0.000000;
	2	 0.0	 0.0	 3	   0.000000	  44.212327	   0.000000;
	2	 0.0	 0.0	 3	   0.000000	  40.914016	   0.000000;
	2	 0.0	 0.0	 3	   0.000000	  41.991091	   0.000000;
	2	 0.0	 0.0	 3	   0.000000	  34.876411	   0.000000;
	2	 0.0	 0.0	 3	   0.000000	  64.821259	   0.000000;
	2	 0.0	 0.0	 3	   0.000000	  22.253409	   0.000000;
	2	 0.0	 0.0	 3	   0.000000	  59.541506	   0.000000;
	2	 0.0	 0.0	 3	   0.000000	  38.745184	   0.000000;
	2	 0.0	 0.0	 3	   0.000000	  29.228613	   0.000000;
	2	 0.0	 0.0	 3	   0.000000	  50.895707	   0.000000;
	2	 0.0	 0.0	 3	   0.000000	  36.373407	   0.000000;
	2	 0.0	 0.0	 3	   0.000000	  44.716459	   0.000000;
	2	 0.0	 0.0	 3	   0.000000	  49.912286	   0.000000;
	2	 0.0	 0.0	 3	   0.000000	  42.997519	   0.000000;
	2	 0.0	 0.0	 3	   0.000000	  47.971027	   0.000000;
	2	 0.0	 0.0	 3	   0.000000	  33.215501	   0.000000;
	2	 0.0	 0.0	 3	   0.000000	  41.252966	   0.000000;
	2	 0.0	 0.0	 3	   0.000000	  53.337744	   0.000000;
	2	 0.0	 0.0	 3	   0.000000	  48.246054	   0.000000;
	2	 0.0	 0.0	 3	   0.000000	  43.675470	   0.000000;
	2	 0.0	 0.0	 3	   0.000000	  21.100270	   0.000000;
	2	 0.0	 0.0	 3	   0.000000	  24.894787	   0.000000;
	2	 0.0	 0.0	 3	   0.000000	  48.302262	   0.000000;
	2	 0.0	 0.0	 3	   0.000000	  42.423168	   0.000000;
	2	 0.0	 0.0	 3	   0.000000	  33.539924	   0.000000;
	2	 0.0	 0.0	 3	   0.000000	  47.661938	   0.000000;
	2	 0.0	 0.0	 3	   0.000000	  28.415603	   0.000000;
	2	 0.0	 0.0	 3	   0.000000	  53.558511	   0.000000;
	2	 0.0	 0.0	 3	   0.000000	  31.199078	   0.000000;
	2	 0.0	 0.0	 3	   0.000000	  40.220517	   0.000000;
	2	 0.0	 0.0	 3	   0.000000	  19.519703	   0.000000;
	2	 0.0	 0.0	 3	   0.000000	  23.708576	   0.000000;
	2	 0.0	 0.0	 3	   0.000000	  47.668770	   0.000000;
	2	 0.0	 0.0	 3	   0.000000	  25.991026	   0.000000;
	2	 0.0	 0.0	 3	   0.000000	  24.242970	   0.000000;
	2	 0.0	 0.0	 3	   0.000000	  36.344305	   0.000000;
	2	 0.0	 0.0	 3	   0.000000	  47.215464	   0.000000;
	2	 0.0	 0.0	 3	   0.000000	 163.810894	   0.000000;
	2	 0.0	 0.0	 3	   0.000000	  19.819040	   0.000000;
	2	 0.0	 0.0	 3	   0.000000	  42.019635	   0.000000;
	2	 0.0	 0.0	 3	   0.000000	  39.682330	   0.000000;
	2	 0.0	 0.0	 3	   0.000000	  47.635363	   0.000000;
	2	 0.0	 0.0	 3	   0.000000	  31.349191	   0.000000;
	2	 0.0	 0.0	 3	   0.000000	  51.396837	   0.000000;
	2	 0.0	 0.0	 3	   0.000000	  35.358693	   0.000000;
	2	 0.0	 0.0	 3	   0.000000	  52.383060	   0.000000;
	2	 0.0	 0.0	 3	   0.000000	  32.345683	   0.000000;
	2	 0.0	 0.0	 3	   0.000000	  49.024308	   0.000000;
	2	 0.0	 0.0	 3	   0.000000	  55.214504	   0.000000;
	2	 0.0	 0.0	 3	   0.000000	  60.385116	   0.000000;
	2	 0.0	 0.0	 3	   0.000000	  27.211396	   0.000000;
	2	 0.0	 0.0	 3	   0.000000	 155.868726	   0.000000;
	2	 0.0	 0.0	 3	   0.000000	  31.264206	   0.000000;
	2	 0.0	 0.0	 3	   0.000000	  63.903961	   0.000000;
	2	 0.0	 0.0	 3	   0.000000	  57.426622	   0.000000;
	2	 0.0	 0.0	 3	   0.000000	  25.359103	   0.000000;
	2	 0.0	 0.0	 3	   0.000000	  53.659716	   0.000000;
	2	 0.0	 0.0	 3	   0.000000	  47.651816	   0.000000;
	2	 0.0	 0.0	 3	   0.000000	  46.105621	   0.000000;
	2	 0.0	 0.0	 3	   0.000000	  48.460440	   0.000000;
	2	 0.0	 0.0	 3	   0.000000	  33.908801	   0.000000;
	2	 0.0	 0.0	 3	   0.000000	  40.837268	   0.000000;
	2	 0.0	 0.0	 3	   0.000000	  47.393536	   0.000000;
	2	 0.0	 0.0	 3	   0.000000	  23.831037	   0.000000;
	2	 0.0	 0.0	 3	   0.000000	  34.477902	   0.000000;
	2	 0.0	 0.0	 3	   0.000000	  59.739601	   0.000000;
	2	 0.0	 0.0	 3	   0.000000	  51.128335	   0.000000;
	2	 0.0	 0.0	 3	   0.000000	  51.263406	   0.000000;
	2	 0.0	 0.0	 3	   0.000000	  56.525264	   0.000000;
	2	 0.0	 0.0	 3	   0.000000	  18.475349	   0.000000;
	2	 0.0	 0.0	 3	   0.000000	 114.590553	   0.000000;
	2	 0.0	 0.0	 3	   0.000000	  38.580124	   0.000000;
	2	 0.0	 0.0	 3	   0.000000	  22.533704	   0.000000;
	2	 0.0	 0.0	 3	   0.000000	  31.050964	   0.000000;
	2	 0.0	 0.0	 3	   0.000000	  47.864247	   0.000000;
	2	 0.0	 0.0	 3	   0.000000	  47.410205	   0.000000;
	2	 0.0	 0.0	 3	   0.000000	  49.376046	   0.000000;
	2	 0.0	 0.0	 3	   0.000000	  27.732445	   0.000000;
	2	 0.0	 0.0	 3	   0.000000	 140.481331	   0.000000;
	2	 0.0	 0.0	 3	   0.000000	  51.619699	   0.000000;
	2	 0.0	 0.0	 3	   0.000000	 129.211345	   0.000000;
	2	 0.0	 0.0	 3	   0.000000	  55.893734	   0.000000;
	2	 0.0	 0.0	 3	   0.000000	  40.015018	   0.000000;
	2	 0.0	 0.0	 3	   0.000000	  36.722636	   0.000000;
	2	 0.0	 0.0	 3	   0.000000	  43.775896	   0.000000;
	2	 0.0	 0.0	 3	   0.000000	  43.213772	   0.000000;
	2	 0.0	 0.0	 3	   0.000000	  53.841797	   0.000000;
	2	 0.0	 0.0	 3	   0.000000	  45.875970	   0.000000;
	2	 0.0	 0.0	 3	   0.000000	  48.418510	   0.000000;
	2	 0.0	 0.0	 3	   0.000000	  41.109825	   0.000000;
	2	 0.0	 0.0	 3	   0.000000	  47.623664	   0.000000;
	2	 0.0	 0.0	 3	   0.000000	 137.364384	   0.000000;
	2	 0.0	 0.0	 3	   0.000000	 130.910033	   0.000000;
	2	 0.0	 0.0	 3	   0.000000	  62.426998	   0.000000;
	2	 0.0	 0.0	 3	   0.000000	  56.335874	   0.000000;
	2	 0.0	 0.0	 3	   0.000000	  51.459022	   0.000000;
	2	 0.0	 0.0	 3	   0.000000	  44.233314	   0.000000;
	2	 0.0	 0.0	 3	   0.000000	  58.440645	   0.000000;
	2	 0.0	 0.0	 3	   0.000000	  12.127339	   0.000000;
	2	 0.0	 0.0	 3	   0.000000	  53.028109	   0.000000;
	2	 0.0	 0.0	 3	   0.000000	  54.189192	   0.000000;
	2	 0.0	 0.0	 3	   0.000000	  34.231236	   0.000000;
	2	 0.0	 0.0	 3	   0.000000	  53.985877	   0.000000;
	2	 0.0	 0.0	 3	   0.000000	  37.838156	   0.000000;
	2	 0.0	 0.0	 3	   0.000000	  42.243731	   0.000000;
	2	 0.0	 0.0	 3	   0.000000	 132.512311	   0.000000;
	2	 0.0	 0.0	 3	   0.000000	 141.607853	   0.000000;
	2	 0.0	 0.0	 3	   0.000000	 154.112284	   0.000000;
	2	 0.0	 0.0	 3	   0.000000	  30.788230	   0.000000;
	2	 0.0	 0.0	 3	   0.000000	  40.887071	   0.000000;
	2	 0.0	 0.0	 3	   0.000000	  58.542315	   0.000000;
	2	 0.0	 0.0	 3	   0.000000	  49.671940	   0.000000;
	2	 0.0	 0.0	 3	   0.000000	  49.794691	   0.000000;
	2	 0.0	 0.0	 3	   0.000000	  45.767319	   0.000000;
	2	 0.0	 0.0	 3	   0.000000	  48.375369	   0.000000;
	2	 0.0	 0.0	 3	   0.000000	  59.879467	   0.000000;
	2	 0.0	 0.0	 3	   0.000000	 129.248399	   0.000000;
	2	 0.0	 0.0	 3	   0.000000	  41.694996	   0.000000;
	2	 0.0	 0.0	 3	   0.000000	  61.195475	   0.000000;
	2	 0.0	 0.0	 3	   0.000000	  44.807070	   0.000000;
	2	 0.0	 0.0	 3	   0.000000	  40.525183	   0.000000;
	2	 0.0	 0.0	 3	   0.000000	  63.064535	   0.000000;
	2	 0.0	 0.0	 3	   0.000000	  30.322966	   0.000000;
	2	 0.0	 0.0	 3	   0.000000	  48.696760	   0.000000;
	2	 0.0	 0.0	 3	   0.000000	  33.297927	   0.000000;
	2	 0.0	 0.0	 3	   0.000000	  11.402172	   0.000000;
	2	 0.0	 0.0	 3	   0.000000	  61.216939	   0.000000;
	2	 0.0	 0.0	 3	   0.000000	  43.423624	   0.000000;
	2	 0.0	 0.0	 3	   0.000000	  51.296548	   0.000000;
	2	 0.0	 0.0	 3	   0.000000	  48.499814	   0.000000;
	2	 0.0	 0.0	 3	   0.000000	  26.247160	   0.000000;
	2	 0.0	 0.0	 3	   0.000000	  53.566327	   0.000000;
	2	 0.0	 0.0	 3	   0.000000	  59.823928	   0.000000;
	2	 0.0	 0.0	 3	   0.000000	 155.607465	   0.000000;
	2	 0.0	 0.0	 3	   0.000000	  28.106637	   0.000000;
	2	 0.0	 0.0	 3	   0.000000	  59.618360	   0.000000;
	2	 0.0	 0.0	 3	   0.000000	  49.433931	   0.000000;
	2	 0.0	 0.0	 3	   0.000000	  40.841051	   0.000000;
	2	 0.0	 0.0	 3	   0.000000	  30.576237	   0.000000;
	2	 0.0	 0.0	 3	   0.000000	  34.612085	   0.000000;
	2	 0.0	 0.0	 3	   0.000000	  44.858599	   0.000000;
	2	 0.0	 0.0	 3	   0.000000	  44.813777	   0.000000;
	2	 0.0	 0.0	 3	   0.000000	  41.967333	   0.000000;
	2	 0.0	 0.0	 3	   0.000000	  61.979195	   0.000000;
	2	 0.0	 0.0	 3	   0.000000	  19.669663	   0.000000;
	2	 0.0	 0.0	 3	   0.000000	  25.745358	   0.000000;
	2	 0.0	 0.0	 3	   0.000000	  37.295796	   0.000000;
	2	 0.0	 0.0	 3	   0.000000	  28.417839	   0.000000;
	2	 0.0	 0.0	 3	   0.000000	  53.576624	   0.000000;
	2	 0.0	 0.0	 3	   0.000000	  47.872511	   0.000000;
	2	 0.0	 0.0	 3	   0.000000	  59.852292	   0.000000;
	2	 0.0	 0.0	 3	   0.000000	  65.069495	   0.000000;
	2	 0.0	 0.0	 3	   0.000000	  42.033281	   0.000000;
	2	 0.0	 0.0	 3	   0.000000	  36.918721	   0.000000;
	2	 0.0	 0.0	 3	   0.000000	  28.336497	   0.000000;
	2	 0.0	 0.0	 3	   0.000000	  30.457835	   0.000000;
	2	 0.0	 0.0	 3	   0.000000	  61.820145	   0.000000;
	2	 0.0	 0.0	 3	   0.000000	  34.879751	   0.000000;
	2	 0.0	 0.0	 3	   0.000000	  23.910094	   0.000000;
	2	 0.0	 0.0	 3	   0.000000	  55.680755	   0.000000;
	2	 0.0	 0.0	 3	   0.000000	  41.218157	   0.000000;
	2	 0.0	 0.0	 3	   0.000000	  67.975524	   0.000000;
	2	 0.0	 0.0	 3	   0.000000	  37.017594	   0.000000;
	2	 0.0	 0.0	 3	   0.000000	 144.261937	   0.000000;
	2	 0.0	 0.0	 3	   0.000000	  47.378307	   0.000000;
	2	 0.0	 0.0	 3	   0.000000	  37.930200	   0.000000;
	2	 0.0	 0.0	 3	   0.000000	  33.771327	   0.000000;
	2	 0.0	 0.0	 3	   0.000000	  43.035190	   0.000000;
	2	 0.0	 0.0	 3	   0.000000	  30.566299	   0.000000;
	2	 0.0	 0.0	 3	   0.000000	  46.978094	   0.000000;
	2	 0.0	 0.0	 3	   0.000000	  38.187218	   0.000000;
	2	 0.0	 0.0	 3	   0.000000	  61.883642	   0.000000;
	2	 0.0	 0.0	 3	   0.000000	  36.869308	   0.000000;
	2	 0.0	 0.0	 3	   0.000000	  47.174169	   0.000000;
	2	 0.0	 0.0	 3	   0.000000	  26.513046	   0.000000;
	2	 0.0	 0.0	 3	   0.000000	  48.790869	   0.000000;
	2	 0.0	 0.0	 3	   0.000000	  37.589268	   0.000000;
	2	 0.0	 0.0	 3	   0.000000	  38.733234	   0.000000;
	2	 0.0	 0.0	 3	   0.000000	  34.063673	   0.000000;
	2	 0.0	 0.0	 3	   0.000000	  21.114929	   0.000000;
	2	 0.0	 0.0	 3	   0.000000	  22.632118	   0.000000;
	2	 0.0	 0.0	 3	   0.000000	  40.165671	   0.000000;
	2	 0.0	 0.0	 3	   0.000000	  61.265342	   0.000000;
	2	 0.0	 0.0	 3	   0.000000	  54.605512	   0.000000;
...
];

%% branch data
%	fbus	tbus	r	x	b	rateA	rateB	rateC	ratio	angle	status	angmin	angmax
mpc.branch = [
	1	 29	 0.0	 0.00028	 0.0	 167.34	 200.81	 251.01	 0.0	 0.0	 1	 -14.752897	 14.752897;
	1	 1421	 0.0001	 0.01	 0.0	 166.52	 199.82	 249.78	 0.0	 0.0	 1	 -14.752897	 14.752897;
	13	 2	 0.00125	 0.1	 0.0	 45.88	 55.06	 82.59	 1.01	 0.0	 1	 -14.752897	 14.752897;
	3	 9	 0.00084	 0.00355	 0.0	 41.29	 49.55	 74.33	 0.0	 0.0	 1	 -14.752897	 14.752897;
	3	 23	 0.00094	 0.00313	 0.0	 52.06	 62.47	 93.71	 0.0	 0.0	 1	 -14.752897	 14.752897;
	4	 12	 0.00207	 0.00925	 0.0	 208.73	 250.48	 313.1	 0.0	 0.0	 1	 -14.752897	 14.752897;
	4	 39	 0.00233	 0.008	 0.0	 206.39	 247.67	 309.58	 0.0	 0.0	 1	 -14.752897	 14.752897;
	5	 30	 0.0	 0.00028	 0.0	 199.61	 239.53	 299.41	 0.0	 0.0	 1	 -14.752897	 14.752897;
	5	 37	 0.00244	 0.00805	 0.0	 202.03	 242.44	 303.04	 0.0	 0.0	 1	 -14.752897	 14.752897;
	40	 6	 0.00125	 0.1	 0.0	 49.98	 59.97	 89.96	 1.01	 0.0	 1	 -14.752897	 14.752897;
	7	 42	 0.0	 0.00028	 0.0	 27.48	 32.97	 49.46	 0.0	 0.0	 1	 -14.752897	 14.752897;
	8	 12	 0.00416	 0.0195	 0.0	 59.12	 70.95	 106.42	 0.0	 0.0	 1	 -14.752897	 14.752897;
	9	 12	 0.00238	 0.00783	 0.0	 41.39	 49.67	 74.51	 0.0	 0.0	 1	 -14.752897	 14.752897;
	10	 14	 0.00246	 0.00908	 0.0	 168.69	 202.43	 303.65	 0.0	 0.0	 1	 -14.752897	 14.752897;
	10	 25	 0.0002	 0.00092	 0.0	 131.45	 157.74	 236.61	 0.0	 0.0	 1	 -14.752897	 14.752897;
	10	 35	 0.01502	 0.05819	 0.0	 83.45	 100.14	 150.21	 0.0	 0.0	 1	 -14.752897	 14.752897;
	10	 43	 0.00186	 0.00691	 0.0	 73.37	 88.04	 132.06	 0.0	 0.0	 1	 -14.752897	 14.752897;
	10	 1425	 0.0001	 0.01	 0.0	 172.67	 207.2	 259.0	 0.0	 0.0	 1	 -14.752897	 14.752897;
	11	 25	 0.01413	 0.06328	 0.0	 131.52	 157.82	 236.73	 0.0	 0.0	 1	 -14.752897	 14.752897;
	12	 20	 0.02839	 0.12908	 0.0	 46.08	 55.3	 82.95	 0.0	 0.0	 1	 -14.752897	 14.752897;
	12	 28	 0.00496	 0.01638	 0.0	 180.75	 216.9	 271.13	 0.0	 0.0	 1	 -14.752897	 14.752897;
	12	 41	 0.01216	 0.05532	 0.0	 60.69	 72.83	 91.04	 0.0	 0.0	 1	 -14.752897	 14.752897;
	12	 1419	 0.0001	 0.01	 0.0	 83.7	 98.6	 125.55	 0.0	 0.0	 1	 -14.752897	 14.752897;
	13	 15	 0.00125	 0.1	 0.0	 46.6	 55.92	 83.88	 1.01	 0.0	 1	 -14.752897	 14.752897;
	13	 26	 0.00125	 0.1	 0.0	 46.6	 55.92	 83.88	 1.01	 0.0	 1	 -14.752897	 14.752897;
	13	 30	 0.00384	 0.00936	 0.0	 402.23	 482.68	 603.35	 0.0	 0.0	 1	 -14.752897	 14.752897;
	13	 40	 0.0	 0.00022	 0.0	 250.91	 301.09	 376.37	 0.0	 0.0	 1	 -14.752897	 14.752897;
	13	 45	 0.00125	 0.1	 0.0	 46.6	 55.92	 83.88	 1.01	 0.0	 1	 -14.752897	 14.752897;
	14	 18	 0.00036	 0.00122	 0.0	 169.4	 203.28	 304.91	 0.0	 0.0	 1	 -14.752897	 14.752897;
	40	 16	 0.00125	 0.1	 0.0	 49.98	 59.97	 89.96	 1.01	 0.0	 1	 -14.752897	 14.752897;
	17	 29	 0.0	 0.00028	 0.0	 110.55	 132.66	 165.82	 0.0	 0.0	 1	 -14.752897	 14.752897;
	17	 1416	 0.0001	 0.01	 0.0	 83.7	 98.6	 125.55	 0.0	 0.0	 1	 -14.752897	 14.752897;
	18	 38	 0.0	 0.00027	 0.0	 50.0	 60.0	 90.0	 0.0	 0.0	 1	 -14.752897	 14.752897;
	19	 22	 0.00057	 0.00168	 0.0	 115.21	 138.25	 207.37	 0.0	 0.0	 1	 -14.752897	 14.752897;
	19	 43	 0.00058	 0.00165	 0.0	 75.53	 90.64	 135.96	 0.0	 0.0	 1	 -14.752897	 14.752897;
	19	 46	 0.0	 0.00022	 0.0	 50.0	 60.0	 90.0	 0.0	 0.0	 1	 -14.752897	 14.752897;
	20	 23	 0.03085	 0.10176	 0.0	 51.14	 61.37	 92.05	 0.0	 0.0	 1	 -14.752897	 14.752897;
	20	 33	 0.00379	 0.01253	 0.0	 96.01	 115.21	 172.82	 0.0	 0.0	 1	 -14.752897	 14.752897;
	21	 35	 0.0081	 0.02869	 0.0	 14.99	 17.98	 26.97	 0.0	 0.0	 1	 -14.752897	 14.752897;
	22	 33	 0.01025	 0.03521	 0.0	 116.65	 139.98	 209.97	 0.0	 0.0	 1	 -14.752897	 14.752897;
	40	 24	 0.00125	 0.1	 0.0	 49.98	 59.97	 89.96	 1.01	 0.0	 1	 -14.752897	 14.752897;
	40	 27	 0.00125	 0.1	 0.0	 49.98	 59.97	 89.96	 1.01	 0.0	 1	 -14.752897	 14.752897;
	28	 29	 0.0	 0.00028	 0.0	 179.24	 215.09	 268.86	 0.0	 0.0	 1	 -14.752897	 14.752897;
	29	 40	 0.00392	 0.00918	 0.0	 405.62	 486.74	 608.43	 0.0	 0.0	 1	 -14.752897	 14.752897;
	30	 31	 0.0	 0.00028	 0.0	 27.84	 33.41	 50.12	 0.0	 0.0	 1	 -14.752897	 14.752897;
	30	 404	 0.0001	 0.01	 0.0	 83.7	 98.6	 125.55	 0.0	 0.0	 1	 -14.752897	 14.752897;
	32	 33	 0.00703	 0.01458	 0.0	 21.39	 25.66	 38.5	 0.0	 0.0	 1	 -14.752897	 14.752897;
	40	 34	 0.00125	 0.1	 0.0	 49.98	 59.97	 89.96	 1.01	 0.0	 1	 -14.752897	 14.752897;
	35	 36	 0.01761	 0.06819	 0.0	 69.46	 83.35	 125.03	 0.0	 0.0	 1	 -14.752897	 14.752897;
	36	 42	 0.00559	 0.0192	 0.0	 70.03	 84.04	 126.06	 0.0	 0.0	 1	 -14.752897	 14.752897;
	37	 39	 0.00229	 0.00818	 0.0	 204.21	 245.06	 306.32	 0.0	 0.0	 1	 -14.752897	 14.752897;
	40	 44	 0.00125	 0.1	 0.0	 50.75	 60.9	 91.35	 1.01	 0.0	 1	 -14.752897	 14.752897;
	41	 42	 0.00549	 0.01962	 0.0	 61.18	 73.41	 91.77	 0.0	 0.0	 1	 -14.752897	 14.752897;
	47	 49	 0.0	 0.00022	 0.0	 50.0	 60.0	 90.0	 0.0	 0.0	 1	 -14.752897	 14.752897;
	48	 53	 0.00109	 0.01324	 0.0	 505.8	 606.96	 910.44	 0.0	 0.0	 1	 -14.752897	 14.752897;
	48	 57	 0.00107	 0.07923	 0.0	 282.48	 338.98	 508.47	 0.99933	 0.0	 1	 -14.752897	 14.752897;
	48	 64	 0.00084	 0.01064	 0.0	 1033.31	 1239.97	 1859.95	 1.01	 0.0	 1	 -14.752897	 14.752897;
	48	 850	 0.0001	 0.01	 0.0	 506.77	 608.13	 760.16	 0.0	 0.0	 1	 -14.752897	 14.752897;
	49	 73	 0.02804	 0.1256	 0.0	 86.13	 103.35	 155.03	 0.0	 0.0	 1	 -14.752897	 14.752897;
	49	 77	 0.01126	 0.04725	 0.0	 95.54	 114.65	 171.98	 0.0	 0.0	 1	 -14.752897	 14.752897;
	49	 86	 0.00538	 0.02004	 0.0	 90.42	 108.5	 162.76	 0.0	 0.0	 1	 -14.752897	 14.752897;
	49	 91	 0.00269	 0.01294	 0.0	 121.84	 146.21	 182.77	 0.0	 0.0	 1	 -14.752897	 14.752897;
...